
     RDKit          3D

422421  0  0  0  0  0  0  0  0999 V2000
    8.7920  -10.6110   -3.4620 C   0  0  0  0  0  0  0  0  0  0  0  0
    9.3170  -11.9750   -2.9730 C   0  0  0  0  0  0  0  0  0  0  0  0
    9.4490   -9.8150   -3.1040 H   0  0  0  0  0  0  0  0  0  0  0  0
    7.8170  -10.4300   -3.0130 H   0  0  0  0  0  0  0  0  0  0  0  0
    8.8600  -12.2730   -1.6460 C   0  0  0  0  0  0  0  0  0  0  0  0
    9.1200  -11.5200   -0.7310 O   0  0  0  0  0  0  0  0  0  0  0  0
    8.2240  -13.3190   -1.3110 N   0  0  0  0  0  0  0  0  0  0  0  0
   10.4060  -11.9860   -2.9980 H   0  0  0  0  0  0  0  0  0  0  0  0
    8.0000  -13.9630   -1.9360 H   0  0  0  0  0  0  0  0  0  0  0  0
    7.9840  -13.4640   -0.4210 H   0  0  0  0  0  0  0  0  0  0  0  0
    7.9190  -11.8170   -5.5870 C   0  0  0  0  0  0  0  0  0  0  0  0
    8.6190  -10.5400   -5.0020 C   0  0  2  0  0  0  0  0  0  0  0  0
    8.5930  -12.6630   -5.4750 H   0  0  0  0  0  0  0  0  0  0  0  0
    7.7870  -11.6840   -6.6630 H   0  0  0  0  0  0  0  0  0  0  0  0
    9.8190  -10.1500   -5.7230 C   0  0  0  0  0  0  0  0  0  0  0  0
   10.8880   -9.9700   -5.1710 O   0  0  0  0  0  0  0  0  0  0  0  0
    9.8560   -9.8410   -6.9560 N   0  0  0  0  0  0  0  0  0  0  0  0
    7.9790   -9.6820   -5.1590 H   0  0  0  0  0  0  0  0  0  0  0  0
    9.0760   -9.8280   -7.4680 H   0  0  0  0  0  0  0  0  0  0  0  0
   10.6500   -9.5270   -7.3410 H   0  0  0  0  0  0  0  0  0  0  0  0
    5.9280  -13.4650   -5.6460 C   0  0  0  0  0  0  0  0  0  0  0  0
    6.5160  -12.1670   -4.9740 C   0  0  2  0  0  0  0  0  0  0  0  0
    5.6360  -13.2000   -6.6510 H   0  0  0  0  0  0  0  0  0  0  0  0
    6.7340  -14.1860   -5.7750 H   0  0  0  0  0  0  0  0  0  0  0  0
    5.7210  -10.9470   -5.1170 C   0  0  0  0  0  0  0  0  0  0  0  0
    5.6250  -10.3850   -6.1910 O   0  0  0  0  0  0  0  0  0  0  0  0
    5.2560  -10.2310   -4.1780 N   0  0  0  0  0  0  0  0  0  0  0  0
    6.6370  -12.3900   -3.9150 H   0  0  0  0  0  0  0  0  0  0  0  0
    5.3340  -10.4990   -3.3010 H   0  0  0  0  0  0  0  0  0  0  0  0
    4.8630   -9.3970   -4.3440 H   0  0  0  0  0  0  0  0  0  0  0  0
    4.0370  -15.3030   -5.8580 C   0  0  0  0  0  0  0  0  0  0  0  0
    4.7380  -14.2180   -4.9440 C   0  0  1  0  0  0  0  0  0  0  0  0
    4.7960  -15.7710   -6.4830 H   0  0  0  0  0  0  0  0  0  0  0  0
    3.6080  -16.1100   -5.2610 H   0  0  0  0  0  0  0  0  0  0  0  0
    5.1350  -14.9170   -3.7330 C   0  0  0  0  0  0  0  0  0  0  0  0
    6.2950  -15.1680   -3.4720 O   0  0  0  0  0  0  0  0  0  0  0  0
    4.3160  -15.3700   -2.8780 N   0  0  0  0  0  0  0  0  0  0  0  0
    4.0220  -13.4550   -4.6460 H   0  0  0  0  0  0  0  0  0  0  0  0
    3.4050  -15.2190   -2.9550 H   0  0  0  0  0  0  0  0  0  0  0  0
    4.6420  -15.9210   -2.1940 H   0  0  0  0  0  0  0  0  0  0  0  0
    2.2370  -15.7980   -7.7320 C   0  0  0  0  0  0  0  0  0  0  0  0
    2.8810  -14.7750   -6.7490 C   0  0  1  0  0  0  0  0  0  0  0  0
    1.5940  -16.4720   -7.1580 H   0  0  0  0  0  0  0  0  0  0  0  0
    3.0260  -16.4060   -8.1780 H   0  0  0  0  0  0  0  0  0  0  0  0
    1.8530  -14.1670   -5.9230 C   0  0  0  0  0  0  0  0  0  0  0  0
    1.3250  -14.7890   -5.0230 O   0  0  0  0  0  0  0  0  0  0  0  0
    1.3700  -13.0070   -6.0320 N   0  0  0  0  0  0  0  0  0  0  0  0
    3.3620  -14.0590   -7.3720 H   0  0  0  0  0  0  0  0  0  0  0  0
    1.6370  -12.4570   -6.7170 H   0  0  0  0  0  0  0  0  0  0  0  0
    0.7130  -12.6930   -5.4440 H   0  0  0  0  0  0  0  0  0  0  0  0
    2.3100  -14.2840   -9.8630 C   0  0  0  0  0  0  0  0  0  0  0  0
    1.4070  -15.1380   -8.8920 C   0  0  1  0  0  0  0  0  0  0  0  0
    3.2150  -14.8620  -10.0520 H   0  0  0  0  0  0  0  0  0  0  0  0
    2.5970  -13.3920   -9.3180 H   0  0  0  0  0  0  0  0  0  0  0  0
    0.6370  -16.1860   -9.5380 C   0  0  0  0  0  0  0  0  0  0  0  0
    1.1230  -16.8450  -10.4380 O   0  0  0  0  0  0  0  0  0  0  0  0
   -0.5460  -16.5130   -9.2120 N   0  0  0  0  0  0  0  0  0  0  0  0
    0.6880  -14.4600   -8.4420 H   0  0  0  0  0  0  0  0  0  0  0  0
   -0.9780  -16.1260   -8.4790 H   0  0  0  0  0  0  0  0  0  0  0  0
   -0.9770  -17.2030   -9.6700 H   0  0  0  0  0  0  0  0  0  0  0  0
    2.9080  -13.1060  -12.1430 C   0  0  0  0  0  0  0  0  0  0  0  0
    1.7900  -13.7750  -11.2500 C   0  0  2  0  0  0  0  0  0  0  0  0
    3.7990  -13.7290  -12.1200 H   0  0  0  0  0  0  0  0  0  0  0  0
    2.5450  -13.1410  -13.1700 H   0  0  0  0  0  0  0  0  0  0  0  0
    0.6290  -12.9110  -11.1340 C   0  0  0  0  0  0  0  0  0  0  0  0
    0.6790  -11.8860  -10.4800 O   0  0  0  0  0  0  0  0  0  0  0  0
   -0.5080  -13.1040  -11.6720 N   0  0  0  0  0  0  0  0  0  0  0  0
    1.4860  -14.6600  -11.8040 H   0  0  0  0  0  0  0  0  0  0  0  0
   -0.6590  -13.8360  -12.2320 H   0  0  0  0  0  0  0  0  0  0  0  0
   -1.1600  -12.4220  -11.6260 H   0  0  0  0  0  0  0  0  0  0  0  0
    4.3490  -10.9240  -12.8260 C   0  0  0  0  0  0  0  0  0  0  0  0
    3.3280  -11.6230  -11.8640 C   0  0  2  0  0  0  0  0  0  0  0  0
    4.4850   -9.9080  -12.4560 H   0  0  0  0  0  0  0  0  0  0  0  0
    5.2990  -11.4360  -12.7050 H   0  0  0  0  0  0  0  0  0  0  0  0
    3.9760  -11.4630  -10.5790 C   0  0  0  0  0  0  0  0  0  0  0  0
    4.9740  -12.0880  -10.2690 O   0  0  0  0  0  0  0  0  0  0  0  0
    3.7050  -10.5210   -9.7810 N   0  0  0  0  0  0  0  0  0  0  0  0
    2.4330  -11.0130  -11.8910 H   0  0  0  0  0  0  0  0  0  0  0  0
    2.9600   -9.9740   -9.9120 H   0  0  0  0  0  0  0  0  0  0  0  0
    4.3490  -10.2360   -9.1620 H   0  0  0  0  0  0  0  0  0  0  0  0
    5.3860  -10.1990  -15.0610 C   0  0  0  0  0  0  0  0  0  0  0  0
    4.1170  -10.7950  -14.3590 C   0  0  2  0  0  0  0  0  0  0  0  0
    5.3280  -10.4530  -16.1150 H   0  0  0  0  0  0  0  0  0  0  0  0
    6.2510  -10.7450  -14.6860 H   0  0  0  0  0  0  0  0  0  0  0  0
    2.9330  -10.0950  -14.8150 C   0  0  0  0  0  0  0  0  0  0  0  0
    2.6200  -10.1920  -15.9870 O   0  0  0  0  0  0  0  0  0  0  0  0
    2.1400   -9.3810  -14.1270 N   0  0  0  0  0  0  0  0  0  0  0  0
    4.0170  -11.8190  -14.7230 H   0  0  0  0  0  0  0  0  0  0  0  0
    2.2770   -9.1920  -13.2310 H   0  0  0  0  0  0  0  0  0  0  0  0
    1.4350   -8.9340  -14.5550 H   0  0  0  0  0  0  0  0  0  0  0  0
    5.0230   -7.8320  -16.0950 C   0  0  0  0  0  0  0  0  0  0  0  0
    5.6660   -8.6570  -14.9350 C   0  0  2  0  0  0  0  0  0  0  0  0
    3.9550   -8.0310  -16.0990 H   0  0  0  0  0  0  0  0  0  0  0  0
    5.4000   -8.2140  -17.0260 H   0  0  0  0  0  0  0  0  0  0  0  0
    7.0950   -8.4060  -14.8260 C   0  0  0  0  0  0  0  0  0  0  0  0
    7.5750   -7.9440  -13.8060 O   0  0  0  0  0  0  0  0  0  0  0  0
    7.9630   -8.6500  -15.7220 N   0  0  0  0  0  0  0  0  0  0  0  0
    5.2150   -8.3160  -14.0120 H   0  0  0  0  0  0  0  0  0  0  0  0
    7.7200   -9.0120  -16.5480 H   0  0  0  0  0  0  0  0  0  0  0  0
    8.8530   -8.3960  -15.5890 H   0  0  0  0  0  0  0  0  0  0  0  0
    6.4820   -5.7340  -16.7160 C   0  0  0  0  0  0  0  0  0  0  0  0
    5.1440   -6.2830  -16.1630 C   0  0  2  0  0  0  0  0  0  0  0  0
    6.7900   -6.3640  -17.5500 H   0  0  0  0  0  0  0  0  0  0  0  0
    7.2500   -5.8440  -15.9490 H   0  0  0  0  0  0  0  0  0  0  0  0
    4.6730   -5.6610  -14.9520 C   0  0  0  0  0  0  0  0  0  0  0  0
    3.5060   -5.3580  -14.8240 O   0  0  0  0  0  0  0  0  0  0  0  0
    5.3490   -5.4470  -13.8970 N   0  0  0  0  0  0  0  0  0  0  0  0
    4.4260   -6.0110  -16.9260 H   0  0  0  0  0  0  0  0  0  0  0  0
    6.2590   -5.6420  -13.8410 H   0  0  0  0  0  0  0  0  0  0  0  0
    4.9430   -5.0460  -13.1520 H   0  0  0  0  0  0  0  0  0  0  0  0
    5.3330   -3.7140  -18.1240 C   0  0  0  0  0  0  0  0  0  0  0  0
    6.4870   -4.2480  -17.1940 C   0  0  2  0  0  0  0  0  0  0  0  0
    5.7510   -2.9760  -18.8090 H   0  0  0  0  0  0  0  0  0  0  0  0
    4.9910   -4.5460  -18.7410 H   0  0  0  0  0  0  0  0  0  0  0  0
    7.8260   -4.0410  -17.7130 C   0  0  0  0  0  0  0  0  0  0  0  0
    8.6950   -3.6470  -16.9550 O   0  0  0  0  0  0  0  0  0  0  0  0
    8.2230   -4.3600  -18.8800 N   0  0  0  0  0  0  0  0  0  0  0  0
    6.4510   -3.6510  -16.3060 H   0  0  0  0  0  0  0  0  0  0  0  0
    7.6450   -4.7570  -19.4950 H   0  0  0  0  0  0  0  0  0  0  0  0
    9.1300   -4.2440  -19.1010 H   0  0  0  0  0  0  0  0  0  0  0  0
    4.3470   -1.5490  -17.0050 C   0  0  0  0  0  0  0  0  0  0  0  0
    4.0880   -3.0260  -17.4390 C   0  0  1  0  0  0  0  0  0  0  0  0
    5.3060   -1.5230  -16.4980 H   0  0  0  0  0  0  0  0  0  0  0  0
    4.4780   -0.9600  -17.9110 H   0  0  0  0  0  0  0  0  0  0  0  0
    2.9340   -3.0360  -18.3240 C   0  0  0  0  0  0  0  0  0  0  0  0
    3.0050   -2.5560  -19.4400 O   0  0  0  0  0  0  0  0  0  0  0  0
    1.7700   -3.4310  -18.0040 N   0  0  0  0  0  0  0  0  0  0  0  0
    3.8420   -3.5930  -16.5530 H   0  0  0  0  0  0  0  0  0  0  0  0
    1.6010   -3.8240  -17.1720 H   0  0  0  0  0  0  0  0  0  0  0  0
    1.0860   -3.3990  -18.6400 H   0  0  0  0  0  0  0  0  0  0  0  0
    3.0110   -1.3970  -14.7160 C   0  0  0  0  0  0  0  0  0  0  0  0
    3.2850   -0.7850  -16.1290 C   0  0  1  0  0  0  0  0  0  0  0  0
    3.9200   -1.2660  -14.1490 H   0  0  0  0  0  0  0  0  0  0  0  0
    2.7980   -2.4630  -14.8100 H   0  0  0  0  0  0  0  0  0  0  0  0
    3.8070    0.5670  -15.9710 C   0  0  0  0  0  0  0  0  0  0  0  0
    4.9090    0.7520  -15.4860 O   0  0  0  0  0  0  0  0  0  0  0  0
    3.2140    1.6340  -16.3200 N   0  0  0  0  0  0  0  0  0  0  0  0
    2.3460   -0.7550  -16.6820 H   0  0  0  0  0  0  0  0  0  0  0  0
    2.3750    1.6120  -16.7180 H   0  0  0  0  0  0  0  0  0  0  0  0
    3.6590    2.4440  -16.1770 H   0  0  0  0  0  0  0  0  0  0  0  0
    0.4880   -0.9740  -14.2500 C   0  0  0  0  0  0  0  0  0  0  0  0
    1.9510   -0.7610  -13.7740 C   0  0  1  0  0  0  0  0  0  0  0  0
    0.2840   -2.0460  -14.3120 H   0  0  0  0  0  0  0  0  0  0  0  0
    0.3920   -0.5590  -15.2480 H   0  0  0  0  0  0  0  0  0  0  0  0
    2.0850   -1.3230  -12.4360 C   0  0  0  0  0  0  0  0  0  0  0  0
    1.8850   -2.5060  -12.2580 O   0  0  0  0  0  0  0  0  0  0  0  0
    2.2600   -0.6420  -11.3780 N   0  0  0  0  0  0  0  0  0  0  0  0
    2.1640    0.3060  -13.7230 H   0  0  0  0  0  0  0  0  0  0  0  0
    2.3930    0.2710  -11.3820 H   0  0  0  0  0  0  0  0  0  0  0  0
    2.2860   -1.0920  -10.5630 H   0  0  0  0  0  0  0  0  0  0  0  0
   -0.5390    1.2520  -13.4440 C   0  0  0  0  0  0  0  0  0  0  0  0
   -0.5620   -0.3030  -13.3150 C   0  0  1  0  0  0  0  0  0  0  0  0
   -1.4380    1.6140  -13.9450 H   0  0  0  0  0  0  0  0  0  0  0  0
    0.2860    1.5560  -14.0880 H   0  0  0  0  0  0  0  0  0  0  0  0
   -1.8940   -0.8100  -13.5670 C   0  0  0  0  0  0  0  0  0  0  0  0
   -2.4240   -0.6470  -14.6560 O   0  0  0  0  0  0  0  0  0  0  0  0
   -2.6030   -1.4040  -12.6980 N   0  0  0  0  0  0  0  0  0  0  0  0
   -0.3280   -0.5690  -12.2860 H   0  0  0  0  0  0  0  0  0  0  0  0
   -2.2610   -1.6400  -11.8600 H   0  0  0  0  0  0  0  0  0  0  0  0
   -3.4760   -1.6000  -12.9160 H   0  0  0  0  0  0  0  0  0  0  0  0
   -0.2220    3.5150  -12.3320 C   0  0  0  0  0  0  0  0  0  0  0  0
   -0.3790    1.9900  -12.0860 C   0  0  1  0  0  0  0  0  0  0  0  0
    0.5680    3.6340  -13.0710 H   0  0  0  0  0  0  0  0  0  0  0  0
   -1.1320    3.9130  -12.7870 H   0  0  0  0  0  0  0  0  0  0  0  0
   -1.4590    1.7090  -11.1630 C   0  0  0  0  0  0  0  0  0  0  0  0
   -1.2520    1.2910  -10.0390 O   0  0  0  0  0  0  0  0  0  0  0  0
   -2.6840    1.8740  -11.4200 N   0  0  0  0  0  0  0  0  0  0  0  0
    0.5460    1.6450  -11.6290 H   0  0  0  0  0  0  0  0  0  0  0  0
   -2.9660    2.1680  -12.2560 H   0  0  0  0  0  0  0  0  0  0  0  0
   -3.3300    1.8070  -10.7560 H   0  0  0  0  0  0  0  0  0  0  0  0
    1.2160    5.4390  -11.3340 C   0  0  0  0  0  0  0  0  0  0  0  0
    0.1530    4.3330  -11.0560 C   0  0  1  0  0  0  0  0  0  0  0  0
    0.9730    6.3310  -10.7610 H   0  0  0  0  0  0  0  0  0  0  0  0
    1.1810    5.7490  -12.3780 H   0  0  0  0  0  0  0  0  0  0  0  0
   -1.0230    4.9460  -10.4750 C   0  0  0  0  0  0  0  0  0  0  0  0
   -1.5770    5.8770  -11.0240 O   0  0  0  0  0  0  0  0  0  0  0  0
   -1.4970    4.6430   -9.3390 N   0  0  0  0  0  0  0  0  0  0  0  0
    0.5680    3.6420  -10.3190 H   0  0  0  0  0  0  0  0  0  0  0  0
   -1.1060    3.9880   -8.8160 H   0  0  0  0  0  0  0  0  0  0  0  0
   -2.2910    5.0400   -9.0570 H   0  0  0  0  0  0  0  0  0  0  0  0
    3.6050    6.2440  -10.9440 C   0  0  0  0  0  0  0  0  0  0  0  0
    2.6530    5.0090  -10.9390 C   0  0  2  0  0  0  0  0  0  0  0  0
    3.0830    7.1120  -10.5360 H   0  0  0  0  0  0  0  0  0  0  0  0
    3.8540    6.4670  -11.9810 H   0  0  0  0  0  0  0  0  0  0  0  0
    3.0780    3.9110  -11.7930 C   0  0  0  0  0  0  0  0  0  0  0  0
    3.1830    2.7790  -11.3600 O   0  0  0  0  0  0  0  0  0  0  0  0
    3.2820    3.9810  -13.0460 N   0  0  0  0  0  0  0  0  0  0  0  0
    2.6130    4.6330   -9.9150 H   0  0  0  0  0  0  0  0  0  0  0  0
    3.1810    4.7790  -13.5120 H   0  0  0  0  0  0  0  0  0  0  0  0
    3.5160    3.2080  -13.5220 H   0  0  0  0  0  0  0  0  0  0  0  0
    4.7010    6.1810   -8.5840 C   0  0  0  0  0  0  0  0  0  0  0  0
    4.9170    6.0810  -10.1290 C   0  0  2  0  0  0  0  0  0  0  0  0
    4.9800    7.1660   -8.2380 H   0  0  0  0  0  0  0  0  0  0  0  0
    3.6360    6.0990   -8.3880 H   0  0  0  0  0  0  0  0  0  0  0  0
    5.9210    7.0160  -10.6210 C   0  0  0  0  0  0  0  0  0  0  0  0
    6.8760    6.6220  -11.2570 O   0  0  0  0  0  0  0  0  0  0  0  0
    5.9170    8.2820  -10.4850 N   0  0  0  0  0  0  0  0  0  0  0  0
    5.2740    5.0870  -10.3570 H   0  0  0  0  0  0  0  0  0  0  0  0
    5.2550    8.7070   -9.9890 H   0  0  0  0  0  0  0  0  0  0  0  0
    6.5910    8.7930  -10.8900 H   0  0  0  0  0  0  0  0  0  0  0  0
    5.1080    5.2200   -6.1900 C   0  0  0  0  0  0  0  0  0  0  0  0
    5.4190    5.1010   -7.7210 C   0  0  2  0  0  0  0  0  0  0  0  0
    5.5420    6.1400   -5.8070 H   0  0  0  0  0  0  0  0  0  0  0  0
    5.6150    4.3940   -5.6920 H   0  0  0  0  0  0  0  0  0  0  0  0
    6.8730    5.0940   -7.8730 C   0  0  0  0  0  0  0  0  0  0  0  0
    7.5790    5.7520   -7.1260 O   0  0  0  0  0  0  0  0  0  0  0  0
    7.5250    4.4880   -8.7750 N   0  0  0  0  0  0  0  0  0  0  0  0
    5.0410    4.1450   -8.0750 H   0  0  0  0  0  0  0  0  0  0  0  0
    7.0940    3.9560   -9.3950 H   0  0  0  0  0  0  0  0  0  0  0  0
    8.4540    4.5740   -8.8310 H   0  0  0  0  0  0  0  0  0  0  0  0
    3.5900    5.1440   -4.1530 C   0  0  0  0  0  0  0  0  0  0  0  0
    3.6370    5.2220   -5.7080 C   0  0  2  0  0  0  0  0  0  0  0  0
    3.8710    4.1390   -3.8390 H   0  0  0  0  0  0  0  0  0  0  0  0
    4.3500    5.8180   -3.7590 H   0  0  0  0  0  0  0  0  0  0  0  0
    2.8950    4.1500   -6.3390 C   0  0  0  0  0  0  0  0  0  0  0  0
    3.1800    2.9770   -6.1990 O   0  0  0  0  0  0  0  0  0  0  0  0
    1.8740    4.3580   -7.0600 N   0  0  0  0  0  0  0  0  0  0  0  0
    3.2090    6.1850   -5.9900 H   0  0  0  0  0  0  0  0  0  0  0  0
    1.5540    5.2150   -7.1820 H   0  0  0  0  0  0  0  0  0  0  0  0
    1.4410    3.6520   -7.4720 H   0  0  0  0  0  0  0  0  0  0  0  0
    2.3310    5.4690   -1.9490 C   0  0  0  0  0  0  0  0  0  0  0  0
    2.2320    5.5360   -3.4950 C   0  0  2  0  0  0  0  0  0  0  0  0
    2.5290    4.4360   -1.6860 H   0  0  0  0  0  0  0  0  0  0  0  0
    3.1950    6.0340   -1.6140 H   0  0  0  0  0  0  0  0  0  0  0  0
    1.1550    4.6680   -3.9160 C   0  0  0  0  0  0  0  0  0  0  0  0
    0.1350    5.1380   -4.3810 O   0  0  0  0  0  0  0  0  0  0  0  0
    1.1480    3.4020   -3.7950 N   0  0  0  0  0  0  0  0  0  0  0  0
    1.9960    6.5650   -3.7800 H   0  0  0  0  0  0  0  0  0  0  0  0
    1.8790    2.9460   -3.4310 H   0  0  0  0  0  0  0  0  0  0  0  0
    0.4140    2.8970   -4.0580 H   0  0  0  0  0  0  0  0  0  0  0  0
    1.1240    5.3390    0.2840 C   0  0  0  0  0  0  0  0  0  0  0  0
    1.0830    5.9390   -1.1430 C   0  0  1  0  0  0  0  0  0  0  0  0
    2.1720    5.1770    0.5520 H   0  0  0  0  0  0  0  0  0  0  0  0
    0.7410    6.0320    1.0280 H   0  0  0  0  0  0  0  0  0  0  0  0
    1.0460    7.3650   -0.9630 C   0  0  0  0  0  0  0  0  0  0  0  0
    1.9070    7.9190   -0.3110 O   0  0  0  0  0  0  0  0  0  0  0  0
    0.0540    8.1010   -1.2180 N   0  0  0  0  0  0  0  0  0  0  0  0
    0.1670    5.6210   -1.6410 H   0  0  0  0  0  0  0  0  0  0  0  0
    0.1330    9.0200   -1.0670 H   0  0  0  0  0  0  0  0  0  0  0  0
   -0.7160    7.7760   -1.6270 H   0  0  0  0  0  0  0  0  0  0  0  0
    0.9690    3.2310    1.5410 C   0  0  0  0  0  0  0  0  0  0  0  0
    0.2970    4.0440    0.4120 C   0  0  1  0  0  0  0  0  0  0  0  0
    1.0190    3.8780    2.4040 H   0  0  0  0  0  0  0  0  0  0  0  0
    2.0000    3.0170    1.2610 H   0  0  0  0  0  0  0  0  0  0  0  0
   -1.1090    4.3520    0.6580 C   0  0  0  0  0  0  0  0  0  0  0  0
   -1.9390    4.3660   -0.2280 O   0  0  0  0  0  0  0  0  0  0  0  0
   -1.6200    4.6940    1.7730 N   0  0  0  0  0  0  0  0  0  0  0  0
    0.3760    3.4850   -0.5230 H   0  0  0  0  0  0  0  0  0  0  0  0
   -2.5370    4.8550    1.8210 H   0  0  0  0  0  0  0  0  0  0  0  0
   -1.0960    4.7730    2.5410 H   0  0  0  0  0  0  0  0  0  0  0  0
    1.0200    1.2210    3.0880 C   0  0  0  0  0  0  0  0  0  0  0  0
    0.2840    1.8960    1.8970 C   0  0  2  0  0  0  0  0  0  0  0  0
    2.0630    1.1030    2.8110 H   0  0  0  0  0  0  0  0  0  0  0  0
    0.6280    0.2140    3.2090 H   0  0  0  0  0  0  0  0  0  0  0  0
    0.2920    1.0800    0.6930 C   0  0  0  0  0  0  0  0  0  0  0  0
    1.3420    0.6620    0.2420 O   0  0  0  0  0  0  0  0  0  0  0  0
   -0.7200    0.8720   -0.0460 N   0  0  0  0  0  0  0  0  0  0  0  0
   -0.7410    2.0810    2.2010 H   0  0  0  0  0  0  0  0  0  0  0  0
   -0.6040    0.3740   -0.8290 H   0  0  0  0  0  0  0  0  0  0  0  0
   -1.5650    1.1870    0.1720 H   0  0  0  0  0  0  0  0  0  0  0  0
   -0.4180    1.7440    5.1680 C   0  0  0  0  0  0  0  0  0  0  0  0
    0.9400    1.9630    4.4630 C   0  0  1  0  0  0  0  0  0  0  0  0
   -0.6080    0.6690    5.1090 H   0  0  0  0  0  0  0  0  0  0  0  0
   -1.2060    2.2200    4.5810 H   0  0  0  0  0  0  0  0  0  0  0  0
    2.0210    1.5620    5.3330 C   0  0  0  0  0  0  0  0  0  0  0  0
    2.8010    2.4060    5.7510 O   0  0  0  0  0  0  0  0  0  0  0  0
    2.1140    0.4230    5.8840 N   0  0  0  0  0  0  0  0  0  0  0  0
    1.0520    3.0340    4.3400 H   0  0  0  0  0  0  0  0  0  0  0  0
    2.7840    0.2320    6.5030 H   0  0  0  0  0  0  0  0  0  0  0  0
    1.5420   -0.2780    5.6590 H   0  0  0  0  0  0  0  0  0  0  0  0
   -1.0030    3.7170    6.7750 C   0  0  0  0  0  0  0  0  0  0  0  0
   -0.5120    2.2390    6.6660 C   0  0  1  0  0  0  0  0  0  0  0  0
   -2.0870    3.6810    6.7720 H   0  0  0  0  0  0  0  0  0  0  0  0
   -0.7650    4.1560    5.8030 H   0  0  0  0  0  0  0  0  0  0  0  0
   -1.3960    1.3010    7.3330 C   0  0  0  0  0  0  0  0  0  0  0  0
   -2.3580    0.8160    6.7700 O   0  0  0  0  0  0  0  0  0  0  0  0
   -1.1550    0.8140    8.4730 N   0  0  0  0  0  0  0  0  0  0  0  0
    0.4500    2.2010    7.1680 H   0  0  0  0  0  0  0  0  0  0  0  0
   -1.7280    0.1710    8.8320 H   0  0  0  0  0  0  0  0  0  0  0  0
   -0.3480    0.9990    8.8940 H   0  0  0  0  0  0  0  0  0  0  0  0
   -1.6930    5.6360    8.4610 C   0  0  0  0  0  0  0  0  0  0  0  0
   -0.5320    4.8020    7.8420 C   0  0  1  0  0  0  0  0  0  0  0  0
   -2.0860    6.1810    7.6030 H   0  0  0  0  0  0  0  0  0  0  0  0
   -1.2600    6.3970    9.1040 H   0  0  0  0  0  0  0  0  0  0  0  0
    0.6130    4.7650    8.7730 C   0  0  0  0  0  0  0  0  0  0  0  0
    0.6750    4.0910    9.7860 O   0  0  0  0  0  0  0  0  0  0  0  0
    1.5160    5.6690    8.8060 N   0  0  0  0  0  0  0  0  0  0  0  0
   -0.1480    5.5380    7.1330 H   0  0  0  0  0  0  0  0  0  0  0  0
    2.2180    5.6290    9.4220 H   0  0  0  0  0  0  0  0  0  0  0  0
    1.5370    6.3780    8.1980 H   0  0  0  0  0  0  0  0  0  0  0  0
   -4.2050    5.8240    8.9590 C   0  0  0  0  0  0  0  0  0  0  0  0
   -2.9080    4.9700    9.1930 C   0  0  2  0  0  0  0  0  0  0  0  0
   -4.6250    6.1230    9.9090 H   0  0  0  0  0  0  0  0  0  0  0  0
   -3.9630    6.7820    8.4960 H   0  0  0  0  0  0  0  0  0  0  0  0
   -2.7450    4.6980   10.6210 C   0  0  0  0  0  0  0  0  0  0  0  0
   -3.2460    3.7010   11.1160 O   0  0  0  0  0  0  0  0  0  0  0  0
   -2.2350    5.4580   11.5040 N   0  0  0  0  0  0  0  0  0  0  0  0
   -3.0470    3.9970    8.7400 H   0  0  0  0  0  0  0  0  0  0  0  0
   -2.1960    5.1810   12.3960 H   0  0  0  0  0  0  0  0  0  0  0  0
   -1.9580    6.3110   11.2810 H   0  0  0  0  0  0  0  0  0  0  0  0
   -5.8780    3.7890    8.6500 C   0  0  0  0  0  0  0  0  0  0  0  0
   -5.3640    5.1850    8.1320 C   0  0  2  0  0  0  0  0  0  0  0  0
   -6.5990    3.3640    7.9500 H   0  0  0  0  0  0  0  0  0  0  0  0
   -5.0560    3.0810    8.7200 H   0  0  0  0  0  0  0  0  0  0  0  0
   -5.1420    5.2460    6.6990 C   0  0  0  0  0  0  0  0  0  0  0  0
   -4.0700    5.4640    6.1680 O   0  0  0  0  0  0  0  0  0  0  0  0
   -6.0450    4.9980    5.8410 N   0  0  0  0  0  0  0  0  0  0  0  0
   -6.1930    5.8770    8.2370 H   0  0  0  0  0  0  0  0  0  0  0  0
   -5.8750    5.0500    4.9310 H   0  0  0  0  0  0  0  0  0  0  0  0
   -6.9200    4.8020    6.1100 H   0  0  0  0  0  0  0  0  0  0  0  0
   -6.9360    2.4880   10.6870 C   0  0  0  0  0  0  0  0  0  0  0  0
   -6.5570    3.8590   10.0430 C   0  0  2  0  0  0  0  0  0  0  0  0
   -8.0100    2.3290   10.6050 H   0  0  0  0  0  0  0  0  0  0  0  0
   -6.4720    1.6930   10.1100 H   0  0  0  0  0  0  0  0  0  0  0  0
   -7.7000    4.7500    9.9990 C   0  0  0  0  0  0  0  0  0  0  0  0
   -8.6000    4.5760    9.2000 O   0  0  0  0  0  0  0  0  0  0  0  0
   -7.8410    5.8040   10.6960 N   0  0  0  0  0  0  0  0  0  0  0  0
   -5.8060    4.2810   10.6810 H   0  0  0  0  0  0  0  0  0  0  0  0
   -8.6400    6.2770   10.6460 H   0  0  0  0  0  0  0  0  0  0  0  0
   -7.2030    6.0580   11.3200 H   0  0  0  0  0  0  0  0  0  0  0  0
   -7.2320    3.3920   13.1090 C   0  0  0  0  0  0  0  0  0  0  0  0
   -6.5070    2.3560   12.1930 C   0  0  1  0  0  0  0  0  0  0  0  0
   -6.9270    4.3810   12.8170 H   0  0  0  0  0  0  0  0  0  0  0  0
   -8.2850    3.3180   12.8530 H   0  0  0  0  0  0  0  0  0  0  0  0
   -6.7070    1.0190   12.7250 C   0  0  0  0  0  0  0  0  0  0  0  0
   -5.8070    0.4170   13.2890 O   0  0  0  0  0  0  0  0  0  0  0  0
   -7.8360    0.4490   12.8150 N   0  0  0  0  0  0  0  0  0  0  0  0
   -5.4380    2.5550   12.2360 H   0  0  0  0  0  0  0  0  0  0  0  0
   -7.9150   -0.3810   13.2340 H   0  0  0  0  0  0  0  0  0  0  0  0
   -8.6010    0.8670   12.5080 H   0  0  0  0  0  0  0  0  0  0  0  0
   -6.2990    4.5490   15.3080 C   0  0  0  0  0  0  0  0  0  0  0  0
   -7.0100    3.2980   14.6630 C   0  0  1  0  0  0  0  0  0  0  0  0
   -5.3820    4.7240   14.7460 H   0  0  0  0  0  0  0  0  0  0  0  0
   -5.9500    4.2200   16.2870 H   0  0  0  0  0  0  0  0  0  0  0  0
   -8.1630    2.7770   15.3990 C   0  0  0  0  0  0  0  0  0  0  0  0
   -9.2100    2.4490   14.8650 O   0  0  0  0  0  0  0  0  0  0  0  0
   -8.1450    2.5090   16.6440 N   0  0  0  0  0  0  0  0  0  0  0  0
   -6.2730    2.5140   14.8180 H   0  0  0  0  0  0  0  0  0  0  0  0
   -8.9080    2.1420   17.0380 H   0  0  0  0  0  0  0  0  0  0  0  0
   -7.3920    2.6330   17.1680 H   0  0  0  0  0  0  0  0  0  0  0  0
   -6.4810    6.6550   16.7870 C   0  0  0  0  0  0  0  0  0  0  0  0
   -7.0280    5.9290   15.5110 C   0  0  1  0  0  0  0  0  0  0  0  0
   -6.6670    6.0240   17.6570 H   0  0  0  0  0  0  0  0  0  0  0  0
   -5.3920    6.7100   16.6950 H   0  0  0  0  0  0  0  0  0  0  0  0
   -6.7920    6.8570   14.4180 C   0  0  0  0  0  0  0  0  0  0  0  0
   -5.6530    7.2350   14.2080 O   0  0  0  0  0  0  0  0  0  0  0  0
   -7.6400    7.5100   13.7450 N   0  0  0  0  0  0  0  0  0  0  0  0
   -8.0900    5.7540   15.6510 H   0  0  0  0  0  0  0  0  0  0  0  0
   -7.3640    8.1640   13.1420 H   0  0  0  0  0  0  0  0  0  0  0  0
   -8.5500    7.4020   13.8970 H   0  0  0  0  0  0  0  0  0  0  0  0
   -8.0040    8.1500   18.2840 C   0  0  0  0  0  0  0  0  0  0  0  0
   -7.0520    8.0970   17.0620 C   0  0  1  0  0  0  0  0  0  0  0  0
   -7.4280    7.8700   19.1670 H   0  0  0  0  0  0  0  0  0  0  0  0
   -8.3110    9.1910   18.4160 H   0  0  0  0  0  0  0  0  0  0  0  0
   -5.9830    9.0730   17.2670 C   0  0  0  0  0  0  0  0  0  0  0  0
   -5.1230    8.8800   18.1070 O   0  0  0  0  0  0  0  0  0  0  0  0
   -5.8680   10.1770   16.6440 N   0  0  0  0  0  0  0  0  0  0  0  0
   -7.6450    8.4490   16.2210 H   0  0  0  0  0  0  0  0  0  0  0  0
   -5.1690   10.7560   16.8650 H   0  0  0  0  0  0  0  0  0  0  0  0
   -6.4740   10.4370   15.9820 H   0  0  0  0  0  0  0  0  0  0  0  0
  -10.1420    7.4480   19.5040 C   0  0  0  0  0  0  0  0  0  0  0  0
   -9.2900    7.2640   18.2120 C   0  0  1  0  0  0  0  0  0  0  0  0
  -10.0830    8.4960   19.8020 H   0  0  0  0  0  0  0  0  0  0  0  0
  -11.1960    7.2500   19.2920 H   0  0  0  0  0  0  0  0  0  0  0  0
  -10.1290    7.5290   17.0550 C   0  0  0  0  0  0  0  0  0  0  0  0
  -10.3590    8.6650   16.6820 O   0  0  0  0  0  0  0  0  0  0  0  0
  -10.7010    6.6160   16.3830 N   0  0  0  0  0  0  0  0  0  0  0  0
   -8.9800    6.2200   18.1580 H   0  0  0  0  0  0  0  0  0  0  0  0
  -11.2580    6.8450   15.6650 H   0  0  0  0  0  0  0  0  0  0  0  0
  -10.6040    5.7110   16.5770 H   0  0  0  0  0  0  0  0  0  0  0  0
   -9.9520    7.1120   22.0900 C   0  0  0  0  0  0  0  0  0  0  0  0
   -9.6740    6.5250   20.6690 C   0  0  1  0  0  0  0  0  0  0  0  0
  -10.2280    8.1670   22.0310 H   0  0  0  0  0  0  0  0  0  0  0  0
  -10.8060    6.5960   22.5360 H   0  0  0  0  0  0  0  0  0  0  0  0
  -10.2030    5.1760   20.5270 C   0  0  0  0  0  0  0  0  0  0  0  0
   -9.4440    4.2500   20.3270 O   0  0  0  0  0  0  0  0  0  0  0  0
  -11.4350    4.8580   20.5600 N   0  0  0  0  0  0  0  0  0  0  0  0
   -8.5930    6.4260   20.5690 H   0  0  0  0  0  0  0  0  0  0  0  0
  -11.6650    3.9580   20.4550 H   0  0  0  0  0  0  0  0  0  0  0  0
  -12.1030    5.4870   20.6970 H   0  0  0  0  0  0  0  0  0  0  0  0
   -7.6600    8.0930   22.7440 C   0  0  0  0  0  0  0  0  0  0  0  0
   -8.7220    6.9840   23.0390 C   0  0  1  0  0  0  0  0  0  0  0  0
   -7.7210    8.3540   21.6870 H   0  0  0  0  0  0  0  0  0  0  0  0
   -7.9060    9.0000   23.3010 H   0  0  0  0  0  0  0  0  0  0  0  0
   -9.1660    6.9720   24.4240 C   0  0  0  0  0  0  0  0  0  0  0  0
   -9.0410    5.9620   25.0870 O   0  0  0  0  0  0  0  0  0  0  0  0
   -9.7590    7.9310   25.0150 N   0  0  0  0  0  0  0  0  0  0  0  0
   -8.2620    6.0090   22.8530 H   0  0  0  0  0  0  0  0  0  0  0  0
   -9.9950    7.8120   25.9100 H   0  0  0  0  0  0  0  0  0  0  0  0
   -9.9200    8.7410   24.6010 H   0  0  0  0  0  0  0  0  0  0  0  0
   -5.2490    8.9350   22.6990 C   0  0  0  0  0  0  0  0  0  0  0  0
   -6.1740    7.7150   23.0200 C   0  0  1  0  0  0  0  0  0  0  0  0
   -5.0230    9.4800   23.6190 H   0  0  0  0  0  0  0  0  0  0  0  0
   -5.7880    9.6300   22.0500 H   0  0  0  0  0  0  0  0  0  0  0  0
   -5.9780    7.2800   24.3950 C   0  0  0  0  0  0  0  0  0  0  0  0
   -6.3450    7.9930   25.3080 O   0  0  0  0  0  0  0  0  0  0  0  0
   -5.4660    6.1700   24.7420 N   0  0  0  0  0  0  0  0  0  0  0  0
   -5.9260    6.8970   22.3410 H   0  0  0  0  0  0  0  0  0  0  0  0
   -5.3940    5.9900   25.6550 H   0  0  0  0  0  0  0  0  0  0  0  0
   -5.1440    5.5590   24.1280 H   0  0  0  0  0  0  0  0  0  0  0  0
   -3.0690    9.9090   21.7910 C   0  0  0  0  0  0  0  0  0  0  0  0
   -3.9170    8.6060   21.9660 C   0  0  1  0  0  0  0  0  0  0  0  0
   -2.2530    9.9350   22.5180 H   0  0  0  0  0  0  0  0  0  0  0  0
   -3.6940   10.7800   22.0010 H   0  0  0  0  0  0  0  0  0  0  0  0
   -3.1640    7.5690   22.6570 C   0  0  0  0  0  0  0  0  0  0  0  0
   -2.7990    7.7240   23.8040 O   0  0  0  0  0  0  0  0  0  0  0  0
   -2.9020    6.4210   22.1740 N   0  0  0  0  0  0  0  0  0  0  0  0
   -4.1980    8.2400   20.9760 H   0  0  0  0  0  0  0  0  0  0  0  0
   -2.4120    5.8250   22.7020 H   0  0  0  0  0  0  0  0  0  0  0  0
   -3.1280    6.1880   21.3070 H   0  0  0  0  0  0  0  0  0  0  0  0
   -1.7260   11.4560   20.3070 C   0  0  0  0  0  0  0  0  0  0  0  0
   -2.4880   10.1160   20.3680 C   0  0  1  0  0  0  0  0  0  0  0  0
   -2.3960   12.2900   20.5250 H   0  0  0  0  0  0  0  0  0  0  0  0
   -1.2870   11.6040   19.3190 H   0  0  0  0  0  0  0  0  0  0  0  0
   -1.5970    9.0430   19.9740 C   0  0  0  0  0  0  0  0  0  0  0  0
   -0.6070    8.7830   20.6270 O   0  0  0  0  0  0  0  0  0  0  0  0
   -1.7710    8.3020   18.9560 N   0  0  0  0  0  0  0  0  0  0  0  0
   -3.3200   10.1860   19.6660 H   0  0  0  0  0  0  0  0  0  0  0  0
   -1.1280    7.6520   18.7610 H   0  0  0  0  0  0  0  0  0  0  0  0
   -2.4960    8.4190   18.3850 H   0  0  0  0  0  0  0  0  0  0  0  0
    8.9230  -12.7470   -3.6500 H   0  0  0  0  0  0  0  0  0  0  0  0
   -0.9270   11.4210   21.0620 H   0  0  0  0  0  0  0  0  0  0  0  0
  1  2  1  0
  1  3  1  0
  1  4  1  0
  1 12  1  0
  2  5  1  0
  2  8  1  0
  2421  1  0
  5  6  2  0
  5  7  1  0
  7  9  1  0
  7 10  1  0
 11 12  1  0
 11 13  1  0
 11 14  1  0
 11 22  1  0
 12 15  1  0
 12 18  1  1
 15 16  2  0
 15 17  1  0
 17 19  1  0
 17 20  1  0
 21 22  1  0
 21 23  1  0
 21 24  1  0
 21 32  1  0
 22 25  1  0
 22 28  1  1
 25 26  2  0
 25 27  1  0
 27 29  1  0
 27 30  1  0
 31 32  1  0
 31 33  1  0
 31 34  1  0
 31 42  1  0
 32 35  1  0
 32 38  1  1
 35 36  2  0
 35 37  1  0
 37 39  1  0
 37 40  1  0
 41 42  1  0
 41 43  1  0
 41 44  1  0
 41 52  1  0
 42 45  1  0
 42 48  1  6
 45 46  2  0
 45 47  1  0
 47 49  1  0
 47 50  1  0
 51 52  1  0
 51 53  1  0
 51 54  1  0
 51 62  1  0
 52 55  1  0
 52 58  1  1
 55 56  2  0
 55 57  1  0
 57 59  1  0
 57 60  1  0
 61 62  1  0
 61 63  1  0
 61 64  1  0
 61 72  1  0
 62 65  1  0
 62 68  1  6
 65 66  2  0
 65 67  1  0
 67 69  1  0
 67 70  1  0
 71 72  1  0
 71 73  1  0
 71 74  1  0
 71 82  1  0
 72 75  1  0
 72 78  1  1
 75 76  2  0
 75 77  1  0
 77 79  1  0
 77 80  1  0
 81 82  1  0
 81 83  1  0
 81 84  1  0
 81 92  1  0
 82 85  1  0
 82 88  1  6
 85 86  2  0
 85 87  1  0
 87 89  1  0
 87 90  1  0
 91 92  1  0
 91 93  1  0
 91 94  1  0
 91102  1  0
 92 95  1  0
 92 98  1  1
 95 96  2  0
 95 97  1  0
 97 99  1  0
 97100  1  0
101102  1  0
101103  1  0
101104  1  0
101112  1  0
102105  1  0
102108  1  6
105106  2  0
105107  1  0
107109  1  0
107110  1  0
111112  1  0
111113  1  0
111114  1  0
111122  1  0
112115  1  0
112118  1  1
115116  2  0
115117  1  0
117119  1  0
117120  1  0
121122  1  0
121123  1  0
121124  1  0
121132  1  0
122125  1  0
122128  1  1
125126  2  0
125127  1  0
127129  1  0
127130  1  0
131132  1  0
131133  1  0
131134  1  0
131142  1  0
132135  1  0
132138  1  6
135136  2  0
135137  1  0
137139  1  0
137140  1  0
141142  1  0
141143  1  0
141144  1  0
141152  1  0
142145  1  0
142148  1  1
145146  2  0
145147  1  0
147149  1  0
147150  1  0
151152  1  0
151153  1  0
151154  1  0
151162  1  0
152155  1  0
152158  1  1
155156  2  0
155157  1  0
157159  1  0
157160  1  0
161162  1  0
161163  1  0
161164  1  0
161172  1  0
162165  1  0
162168  1  1
165166  2  0
165167  1  0
167169  1  0
167170  1  0
171172  1  0
171173  1  0
171174  1  0
171182  1  0
172175  1  0
172178  1  1
175176  2  0
175177  1  0
177179  1  0
177180  1  0
181182  1  0
181183  1  0
181184  1  0
181192  1  0
182185  1  0
182188  1  1
185186  2  0
185187  1  0
187189  1  0
187190  1  0
191192  1  0
191193  1  0
191194  1  0
191202  1  0
192195  1  0
192198  1  1
195196  2  0
195197  1  0
197199  1  0
197200  1  0
201202  1  0
201203  1  0
201204  1  0
201212  1  0
202205  1  0
202208  1  6
205206  2  0
205207  1  0
207209  1  0
207210  1  0
211212  1  0
211213  1  0
211214  1  0
211222  1  0
212215  1  0
212218  1  1
215216  2  0
215217  1  0
217219  1  0
217220  1  0
221222  1  0
221223  1  0
221224  1  0
221232  1  0
222225  1  0
222228  1  1
225226  2  0
225227  1  0
227229  1  0
227230  1  0
231232  1  0
231233  1  0
231234  1  0
231242  1  0
232235  1  0
232238  1  6
235236  2  0
235237  1  0
237239  1  0
237240  1  0
241242  1  0
241243  1  0
241244  1  0
241252  1  0
242245  1  0
242248  1  6
245246  2  0
245247  1  0
247249  1  0
247250  1  0
251252  1  0
251253  1  0
251254  1  0
251262  1  0
252255  1  0
252258  1  1
255256  2  0
255257  1  0
257259  1  0
257260  1  0
261262  1  0
261263  1  0
261264  1  0
261272  1  0
262265  1  0
262268  1  6
265266  2  0
265267  1  0
267269  1  0
267270  1  0
271272  1  0
271273  1  0
271274  1  0
271282  1  0
272275  1  0
272278  1  1
275276  2  0
275277  1  0
277279  1  0
277280  1  0
281282  1  0
281283  1  0
281284  1  0
281292  1  0
282285  1  0
282288  1  6
285286  2  0
285287  1  0
287289  1  0
287290  1  0
291292  1  0
291293  1  0
291294  1  0
291302  1  0
292295  1  0
292298  1  6
295296  2  0
295297  1  0
297299  1  0
297300  1  0
301302  1  0
301303  1  0
301304  1  0
301312  1  0
302305  1  0
302308  1  6
305306  2  0
305307  1  0
307309  1  0
307310  1  0
311312  1  0
311313  1  0
311314  1  0
311322  1  0
312315  1  0
312318  1  1
315316  2  0
315317  1  0
317319  1  0
317320  1  0
321322  1  0
321323  1  0
321324  1  0
321332  1  0
322325  1  0
322328  1  6
325326  2  0
325327  1  0
327329  1  0
327330  1  0
331332  1  0
331333  1  0
331334  1  0
331342  1  0
332335  1  0
332338  1  6
335336  2  0
335337  1  0
337339  1  0
337340  1  0
341342  1  0
341343  1  0
341344  1  0
341352  1  0
342345  1  0
342348  1  1
345346  2  0
345347  1  0
347349  1  0
347350  1  0
351352  1  0
351353  1  0
351354  1  0
351362  1  0
352355  1  0
352358  1  6
355356  2  0
355357  1  0
357359  1  0
357360  1  0
361362  1  0
361363  1  0
361364  1  0
361372  1  0
362365  1  0
362368  1  6
365366  2  0
365367  1  0
367369  1  0
367370  1  0
371372  1  0
371373  1  0
371374  1  0
371382  1  0
372375  1  0
372378  1  6
375376  2  0
375377  1  0
377379  1  0
377380  1  0
381382  1  0
381383  1  0
381384  1  0
381392  1  0
382385  1  0
382388  1  6
385386  2  0
385387  1  0
387389  1  0
387390  1  0
391392  1  0
391393  1  0
391394  1  0
391402  1  0
392395  1  0
392398  1  6
395396  2  0
395397  1  0
397399  1  0
397400  1  0
401402  1  0
401403  1  0
401404  1  0
401412  1  0
402405  1  0
402408  1  6
405406  2  0
405407  1  0
407409  1  0
407410  1  0
411412  1  0
411413  1  0
411414  1  0
411422  1  0
412415  1  0
412418  1  6
415416  2  0
415417  1  0
417419  1  0
417420  1  0
M  END
>  <charge_method>  (1) 
NAGL

>  <metadata>  (1) 
{0: {'residue_name': 'paam_TERM3', 'residue_number': 126, 'insertion_code': ' ', 'chain_id': ' ', 'match_info': '{"43": ["paam", 2], "44": ["paam", 2], "126": ["paam_TERM3", 2]}', 'substructure_query_id': 2}, 1: {'residue_name': 'paam_TERM3', 'residue_number': 126, 'insertion_code': ' ', 'chain_id': ' ', 'match_info': '{"43": ["paam", 1], "126": ["paam_TERM3", 1]}', 'substructure_query_id': 1}, 2: {'residue_name': 'paam_TERM3', 'residue_number': 126, 'insertion_code': ' ', 'chain_id': ' ', 'match_info': '{"43": ["paam", 3], "44": ["paam", 3], "126": ["paam_TERM3", 3]}', 'substructure_query_id': 3}, 3: {'residue_name': 'paam_TERM3', 'residue_number': 126, 'insertion_code': ' ', 'chain_id': ' ', 'match_info': '{"43": ["paam", 4], "44": ["paam", 4], "126": ["paam_TERM3", 4]}', 'substructure_query_id': 4}, 4: {'residue_name': 'paam_TERM3', 'residue_number': 126, 'insertion_code': ' ', 'chain_id': ' ', 'match_info': '{"0": ["NH2", 1], "43": ["paam", 6], "126": ["paam_TERM3", 6]}', 'substructure_query_id': 6}, 5: {'residue_name': 'paam_TERM3', 'residue_number': 126, 'insertion_code': ' ', 'chain_id': ' ', 'match_info': '{"0": ["NH2", 2], "43": ["paam", 7], "126": ["paam_TERM3", 7]}', 'substructure_query_id': 7}, 6: {'residue_name': 'paam_TERM3', 'residue_number': 126, 'insertion_code': ' ', 'chain_id': ' ', 'match_info': '{"0": ["NH2", 3], "43": ["paam", 8], "126": ["paam_TERM3", 8]}', 'substructure_query_id': 8}, 7: {'residue_name': 'paam_TERM3', 'residue_number': 126, 'insertion_code': ' ', 'chain_id': ' ', 'match_info': '{"126": ["paam_TERM3", 0]}', 'substructure_query_id': 0}, 8: {'residue_name': 'paam_TERM3', 'residue_number': 126, 'insertion_code': ' ', 'chain_id': ' ', 'match_info': '{"0": ["NH2", 4], "43": ["paam", 9], "126": ["paam_TERM3", 9]}', 'substructure_query_id': 9}, 9: {'residue_name': 'paam_TERM3', 'residue_number': 126, 'insertion_code': ' ', 'chain_id': ' ', 'match_info': '{"0": ["NH2", 5], "43": ["paam", 10], "126": ["paam_TERM3", 10]}', 'substructure_query_id': 10}, 10: {'residue_name': 'paam', 'residue_number': 42, 'insertion_code': ' ', 'chain_id': ' ', 'match_info': '{"42": ["paam", 2], "46": ["paam", 2]}', 'substructure_query_id': 2}, 11: {'residue_name': 'paam', 'residue_number': 42, 'insertion_code': ' ', 'chain_id': ' ', 'match_info': '{"42": ["paam", 1], "44": ["paam", 1]}', 'substructure_query_id': 1}, 12: {'residue_name': 'paam', 'residue_number': 42, 'insertion_code': ' ', 'chain_id': ' ', 'match_info': '{"42": ["paam", 3], "46": ["paam", 3]}', 'substructure_query_id': 3}, 13: {'residue_name': 'paam', 'residue_number': 42, 'insertion_code': ' ', 'chain_id': ' ', 'match_info': '{"42": ["paam", 4], "46": ["paam", 4]}', 'substructure_query_id': 4}, 14: {'residue_name': 'paam', 'residue_number': 42, 'insertion_code': ' ', 'chain_id': ' ', 'match_info': '{"1": ["NH2", 1], "42": ["paam", 6], "44": ["paam", 6]}', 'substructure_query_id': 6}, 15: {'residue_name': 'paam', 'residue_number': 42, 'insertion_code': ' ', 'chain_id': ' ', 'match_info': '{"1": ["NH2", 2], "42": ["paam", 7], "44": ["paam", 7]}', 'substructure_query_id': 7}, 16: {'residue_name': 'paam', 'residue_number': 42, 'insertion_code': ' ', 'chain_id': ' ', 'match_info': '{"1": ["NH2", 3], "42": ["paam", 8], "44": ["paam", 8]}', 'substructure_query_id': 8}, 17: {'residue_name': 'paam', 'residue_number': 42, 'insertion_code': ' ', 'chain_id': ' ', 'match_info': '{"42": ["paam", 11], "44": ["paam", 11]}', 'substructure_query_id': 11}, 18: {'residue_name': 'paam', 'residue_number': 42, 'insertion_code': ' ', 'chain_id': ' ', 'match_info': '{"1": ["NH2", 4], "42": ["paam", 9], "44": ["paam", 9]}', 'substructure_query_id': 9}, 19: {'residue_name': 'paam', 'residue_number': 42, 'insertion_code': ' ', 'chain_id': ' ', 'match_info': '{"1": ["NH2", 5], "42": ["paam", 10], "44": ["paam", 10]}', 'substructure_query_id': 10}, 20: {'residue_name': 'paam', 'residue_number': 45, 'insertion_code': ' ', 'chain_id': ' ', 'match_info': '{"45": ["paam", 2], "48": ["paam", 2]}', 'substructure_query_id': 2}, 21: {'residue_name': 'paam', 'residue_number': 45, 'insertion_code': ' ', 'chain_id': ' ', 'match_info': '{"45": ["paam", 1], "46": ["paam", 1]}', 'substructure_query_id': 1}, 22: {'residue_name': 'paam', 'residue_number': 45, 'insertion_code': ' ', 'chain_id': ' ', 'match_info': '{"45": ["paam", 3], "48": ["paam", 3]}', 'substructure_query_id': 3}, 23: {'residue_name': 'paam', 'residue_number': 45, 'insertion_code': ' ', 'chain_id': ' ', 'match_info': '{"45": ["paam", 4], "48": ["paam", 4]}', 'substructure_query_id': 4}, 24: {'residue_name': 'paam', 'residue_number': 45, 'insertion_code': ' ', 'chain_id': ' ', 'match_info': '{"2": ["NH2", 1], "45": ["paam", 6], "46": ["paam", 6]}', 'substructure_query_id': 6}, 25: {'residue_name': 'paam', 'residue_number': 45, 'insertion_code': ' ', 'chain_id': ' ', 'match_info': '{"2": ["NH2", 2], "45": ["paam", 7], "46": ["paam", 7]}', 'substructure_query_id': 7}, 26: {'residue_name': 'paam', 'residue_number': 45, 'insertion_code': ' ', 'chain_id': ' ', 'match_info': '{"2": ["NH2", 3], "45": ["paam", 8], "46": ["paam", 8]}', 'substructure_query_id': 8}, 27: {'residue_name': 'paam', 'residue_number': 45, 'insertion_code': ' ', 'chain_id': ' ', 'match_info': '{"45": ["paam", 11], "46": ["paam", 11]}', 'substructure_query_id': 11}, 28: {'residue_name': 'paam', 'residue_number': 45, 'insertion_code': ' ', 'chain_id': ' ', 'match_info': '{"2": ["NH2", 4], "45": ["paam", 9], "46": ["paam", 9]}', 'substructure_query_id': 9}, 29: {'residue_name': 'paam', 'residue_number': 45, 'insertion_code': ' ', 'chain_id': ' ', 'match_info': '{"2": ["NH2", 5], "45": ["paam", 10], "46": ["paam", 10]}', 'substructure_query_id': 10}, 30: {'residue_name': 'paam', 'residue_number': 47, 'insertion_code': ' ', 'chain_id': ' ', 'match_info': '{"47": ["paam", 2], "50": ["paam", 2]}', 'substructure_query_id': 2}, 31: {'residue_name': 'paam', 'residue_number': 47, 'insertion_code': ' ', 'chain_id': ' ', 'match_info': '{"47": ["paam", 1], "48": ["paam", 1]}', 'substructure_query_id': 1}, 32: {'residue_name': 'paam', 'residue_number': 47, 'insertion_code': ' ', 'chain_id': ' ', 'match_info': '{"47": ["paam", 3], "50": ["paam", 3]}', 'substructure_query_id': 3}, 33: {'residue_name': 'paam', 'residue_number': 47, 'insertion_code': ' ', 'chain_id': ' ', 'match_info': '{"47": ["paam", 4], "50": ["paam", 4]}', 'substructure_query_id': 4}, 34: {'residue_name': 'paam', 'residue_number': 47, 'insertion_code': ' ', 'chain_id': ' ', 'match_info': '{"3": ["NH2", 1], "47": ["paam", 6], "48": ["paam", 6]}', 'substructure_query_id': 6}, 35: {'residue_name': 'paam', 'residue_number': 47, 'insertion_code': ' ', 'chain_id': ' ', 'match_info': '{"3": ["NH2", 2], "47": ["paam", 7], "48": ["paam", 7]}', 'substructure_query_id': 7}, 36: {'residue_name': 'paam', 'residue_number': 47, 'insertion_code': ' ', 'chain_id': ' ', 'match_info': '{"3": ["NH2", 3], "47": ["paam", 8], "48": ["paam", 8]}', 'substructure_query_id': 8}, 37: {'residue_name': 'paam', 'residue_number': 47, 'insertion_code': ' ', 'chain_id': ' ', 'match_info': '{"47": ["paam", 11], "48": ["paam", 11]}', 'substructure_query_id': 11}, 38: {'residue_name': 'paam', 'residue_number': 47, 'insertion_code': ' ', 'chain_id': ' ', 'match_info': '{"3": ["NH2", 4], "47": ["paam", 9], "48": ["paam", 9]}', 'substructure_query_id': 9}, 39: {'residue_name': 'paam', 'residue_number': 47, 'insertion_code': ' ', 'chain_id': ' ', 'match_info': '{"3": ["NH2", 5], "47": ["paam", 10], "48": ["paam", 10]}', 'substructure_query_id': 10}, 40: {'residue_name': 'paam', 'residue_number': 49, 'insertion_code': ' ', 'chain_id': ' ', 'match_info': '{"49": ["paam", 2], "52": ["paam", 2]}', 'substructure_query_id': 2}, 41: {'residue_name': 'paam', 'residue_number': 49, 'insertion_code': ' ', 'chain_id': ' ', 'match_info': '{"49": ["paam", 1], "50": ["paam", 1]}', 'substructure_query_id': 1}, 42: {'residue_name': 'paam', 'residue_number': 49, 'insertion_code': ' ', 'chain_id': ' ', 'match_info': '{"49": ["paam", 3], "52": ["paam", 3]}', 'substructure_query_id': 3}, 43: {'residue_name': 'paam', 'residue_number': 49, 'insertion_code': ' ', 'chain_id': ' ', 'match_info': '{"49": ["paam", 4], "52": ["paam", 4]}', 'substructure_query_id': 4}, 44: {'residue_name': 'paam', 'residue_number': 49, 'insertion_code': ' ', 'chain_id': ' ', 'match_info': '{"4": ["NH2", 1], "49": ["paam", 6], "50": ["paam", 6]}', 'substructure_query_id': 6}, 45: {'residue_name': 'paam', 'residue_number': 49, 'insertion_code': ' ', 'chain_id': ' ', 'match_info': '{"4": ["NH2", 2], "49": ["paam", 7], "50": ["paam", 7]}', 'substructure_query_id': 7}, 46: {'residue_name': 'paam', 'residue_number': 49, 'insertion_code': ' ', 'chain_id': ' ', 'match_info': '{"4": ["NH2", 3], "49": ["paam", 8], "50": ["paam", 8]}', 'substructure_query_id': 8}, 47: {'residue_name': 'paam', 'residue_number': 49, 'insertion_code': ' ', 'chain_id': ' ', 'match_info': '{"49": ["paam", 11], "50": ["paam", 11]}', 'substructure_query_id': 11}, 48: {'residue_name': 'paam', 'residue_number': 49, 'insertion_code': ' ', 'chain_id': ' ', 'match_info': '{"4": ["NH2", 4], "49": ["paam", 9], "50": ["paam", 9]}', 'substructure_query_id': 9}, 49: {'residue_name': 'paam', 'residue_number': 49, 'insertion_code': ' ', 'chain_id': ' ', 'match_info': '{"4": ["NH2", 5], "49": ["paam", 10], "50": ["paam", 10]}', 'substructure_query_id': 10}, 50: {'residue_name': 'paam', 'residue_number': 51, 'insertion_code': ' ', 'chain_id': ' ', 'match_info': '{"51": ["paam", 2], "54": ["paam", 2]}', 'substructure_query_id': 2}, 51: {'residue_name': 'paam', 'residue_number': 51, 'insertion_code': ' ', 'chain_id': ' ', 'match_info': '{"51": ["paam", 1], "52": ["paam", 1]}', 'substructure_query_id': 1}, 52: {'residue_name': 'paam', 'residue_number': 51, 'insertion_code': ' ', 'chain_id': ' ', 'match_info': '{"51": ["paam", 3], "54": ["paam", 3]}', 'substructure_query_id': 3}, 53: {'residue_name': 'paam', 'residue_number': 51, 'insertion_code': ' ', 'chain_id': ' ', 'match_info': '{"51": ["paam", 4], "54": ["paam", 4]}', 'substructure_query_id': 4}, 54: {'residue_name': 'paam', 'residue_number': 51, 'insertion_code': ' ', 'chain_id': ' ', 'match_info': '{"5": ["NH2", 1], "51": ["paam", 6], "52": ["paam", 6]}', 'substructure_query_id': 6}, 55: {'residue_name': 'paam', 'residue_number': 51, 'insertion_code': ' ', 'chain_id': ' ', 'match_info': '{"5": ["NH2", 2], "51": ["paam", 7], "52": ["paam", 7]}', 'substructure_query_id': 7}, 56: {'residue_name': 'paam', 'residue_number': 51, 'insertion_code': ' ', 'chain_id': ' ', 'match_info': '{"5": ["NH2", 3], "51": ["paam", 8], "52": ["paam", 8]}', 'substructure_query_id': 8}, 57: {'residue_name': 'paam', 'residue_number': 51, 'insertion_code': ' ', 'chain_id': ' ', 'match_info': '{"51": ["paam", 11], "52": ["paam", 11]}', 'substructure_query_id': 11}, 58: {'residue_name': 'paam', 'residue_number': 51, 'insertion_code': ' ', 'chain_id': ' ', 'match_info': '{"5": ["NH2", 4], "51": ["paam", 9], "52": ["paam", 9]}', 'substructure_query_id': 9}, 59: {'residue_name': 'paam', 'residue_number': 51, 'insertion_code': ' ', 'chain_id': ' ', 'match_info': '{"5": ["NH2", 5], "51": ["paam", 10], "52": ["paam", 10]}', 'substructure_query_id': 10}, 60: {'residue_name': 'paam', 'residue_number': 53, 'insertion_code': ' ', 'chain_id': ' ', 'match_info': '{"53": ["paam", 2], "56": ["paam", 2]}', 'substructure_query_id': 2}, 61: {'residue_name': 'paam', 'residue_number': 53, 'insertion_code': ' ', 'chain_id': ' ', 'match_info': '{"53": ["paam", 1], "54": ["paam", 1]}', 'substructure_query_id': 1}, 62: {'residue_name': 'paam', 'residue_number': 53, 'insertion_code': ' ', 'chain_id': ' ', 'match_info': '{"53": ["paam", 3], "56": ["paam", 3]}', 'substructure_query_id': 3}, 63: {'residue_name': 'paam', 'residue_number': 53, 'insertion_code': ' ', 'chain_id': ' ', 'match_info': '{"53": ["paam", 4], "56": ["paam", 4]}', 'substructure_query_id': 4}, 64: {'residue_name': 'paam', 'residue_number': 53, 'insertion_code': ' ', 'chain_id': ' ', 'match_info': '{"6": ["NH2", 1], "53": ["paam", 6], "54": ["paam", 6]}', 'substructure_query_id': 6}, 65: {'residue_name': 'paam', 'residue_number': 53, 'insertion_code': ' ', 'chain_id': ' ', 'match_info': '{"6": ["NH2", 2], "53": ["paam", 7], "54": ["paam", 7]}', 'substructure_query_id': 7}, 66: {'residue_name': 'paam', 'residue_number': 53, 'insertion_code': ' ', 'chain_id': ' ', 'match_info': '{"6": ["NH2", 3], "53": ["paam", 8], "54": ["paam", 8]}', 'substructure_query_id': 8}, 67: {'residue_name': 'paam', 'residue_number': 53, 'insertion_code': ' ', 'chain_id': ' ', 'match_info': '{"53": ["paam", 11], "54": ["paam", 11]}', 'substructure_query_id': 11}, 68: {'residue_name': 'paam', 'residue_number': 53, 'insertion_code': ' ', 'chain_id': ' ', 'match_info': '{"6": ["NH2", 4], "53": ["paam", 9], "54": ["paam", 9]}', 'substructure_query_id': 9}, 69: {'residue_name': 'paam', 'residue_number': 53, 'insertion_code': ' ', 'chain_id': ' ', 'match_info': '{"6": ["NH2", 5], "53": ["paam", 10], "54": ["paam", 10]}', 'substructure_query_id': 10}, 70: {'residue_name': 'paam', 'residue_number': 55, 'insertion_code': ' ', 'chain_id': ' ', 'match_info': '{"55": ["paam", 2], "58": ["paam", 2]}', 'substructure_query_id': 2}, 71: {'residue_name': 'paam', 'residue_number': 55, 'insertion_code': ' ', 'chain_id': ' ', 'match_info': '{"55": ["paam", 1], "56": ["paam", 1]}', 'substructure_query_id': 1}, 72: {'residue_name': 'paam', 'residue_number': 55, 'insertion_code': ' ', 'chain_id': ' ', 'match_info': '{"55": ["paam", 3], "58": ["paam", 3]}', 'substructure_query_id': 3}, 73: {'residue_name': 'paam', 'residue_number': 55, 'insertion_code': ' ', 'chain_id': ' ', 'match_info': '{"55": ["paam", 4], "58": ["paam", 4]}', 'substructure_query_id': 4}, 74: {'residue_name': 'paam', 'residue_number': 55, 'insertion_code': ' ', 'chain_id': ' ', 'match_info': '{"7": ["NH2", 1], "55": ["paam", 6], "56": ["paam", 6]}', 'substructure_query_id': 6}, 75: {'residue_name': 'paam', 'residue_number': 55, 'insertion_code': ' ', 'chain_id': ' ', 'match_info': '{"7": ["NH2", 2], "55": ["paam", 7], "56": ["paam", 7]}', 'substructure_query_id': 7}, 76: {'residue_name': 'paam', 'residue_number': 55, 'insertion_code': ' ', 'chain_id': ' ', 'match_info': '{"7": ["NH2", 3], "55": ["paam", 8], "56": ["paam", 8]}', 'substructure_query_id': 8}, 77: {'residue_name': 'paam', 'residue_number': 55, 'insertion_code': ' ', 'chain_id': ' ', 'match_info': '{"55": ["paam", 11], "56": ["paam", 11]}', 'substructure_query_id': 11}, 78: {'residue_name': 'paam', 'residue_number': 55, 'insertion_code': ' ', 'chain_id': ' ', 'match_info': '{"7": ["NH2", 4], "55": ["paam", 9], "56": ["paam", 9]}', 'substructure_query_id': 9}, 79: {'residue_name': 'paam', 'residue_number': 55, 'insertion_code': ' ', 'chain_id': ' ', 'match_info': '{"7": ["NH2", 5], "55": ["paam", 10], "56": ["paam", 10]}', 'substructure_query_id': 10}, 80: {'residue_name': 'paam', 'residue_number': 57, 'insertion_code': ' ', 'chain_id': ' ', 'match_info': '{"57": ["paam", 2], "60": ["paam", 2]}', 'substructure_query_id': 2}, 81: {'residue_name': 'paam', 'residue_number': 57, 'insertion_code': ' ', 'chain_id': ' ', 'match_info': '{"57": ["paam", 1], "58": ["paam", 1]}', 'substructure_query_id': 1}, 82: {'residue_name': 'paam', 'residue_number': 57, 'insertion_code': ' ', 'chain_id': ' ', 'match_info': '{"57": ["paam", 3], "60": ["paam", 3]}', 'substructure_query_id': 3}, 83: {'residue_name': 'paam', 'residue_number': 57, 'insertion_code': ' ', 'chain_id': ' ', 'match_info': '{"57": ["paam", 4], "60": ["paam", 4]}', 'substructure_query_id': 4}, 84: {'residue_name': 'paam', 'residue_number': 57, 'insertion_code': ' ', 'chain_id': ' ', 'match_info': '{"8": ["NH2", 1], "57": ["paam", 6], "58": ["paam", 6]}', 'substructure_query_id': 6}, 85: {'residue_name': 'paam', 'residue_number': 57, 'insertion_code': ' ', 'chain_id': ' ', 'match_info': '{"8": ["NH2", 2], "57": ["paam", 7], "58": ["paam", 7]}', 'substructure_query_id': 7}, 86: {'residue_name': 'paam', 'residue_number': 57, 'insertion_code': ' ', 'chain_id': ' ', 'match_info': '{"8": ["NH2", 3], "57": ["paam", 8], "58": ["paam", 8]}', 'substructure_query_id': 8}, 87: {'residue_name': 'paam', 'residue_number': 57, 'insertion_code': ' ', 'chain_id': ' ', 'match_info': '{"57": ["paam", 11], "58": ["paam", 11]}', 'substructure_query_id': 11}, 88: {'residue_name': 'paam', 'residue_number': 57, 'insertion_code': ' ', 'chain_id': ' ', 'match_info': '{"8": ["NH2", 4], "57": ["paam", 9], "58": ["paam", 9]}', 'substructure_query_id': 9}, 89: {'residue_name': 'paam', 'residue_number': 57, 'insertion_code': ' ', 'chain_id': ' ', 'match_info': '{"8": ["NH2", 5], "57": ["paam", 10], "58": ["paam", 10]}', 'substructure_query_id': 10}, 90: {'residue_name': 'paam', 'residue_number': 59, 'insertion_code': ' ', 'chain_id': ' ', 'match_info': '{"59": ["paam", 2], "62": ["paam", 2]}', 'substructure_query_id': 2}, 91: {'residue_name': 'paam', 'residue_number': 59, 'insertion_code': ' ', 'chain_id': ' ', 'match_info': '{"59": ["paam", 1], "60": ["paam", 1]}', 'substructure_query_id': 1}, 92: {'residue_name': 'paam', 'residue_number': 59, 'insertion_code': ' ', 'chain_id': ' ', 'match_info': '{"59": ["paam", 3], "62": ["paam", 3]}', 'substructure_query_id': 3}, 93: {'residue_name': 'paam', 'residue_number': 59, 'insertion_code': ' ', 'chain_id': ' ', 'match_info': '{"59": ["paam", 4], "62": ["paam", 4]}', 'substructure_query_id': 4}, 94: {'residue_name': 'paam', 'residue_number': 59, 'insertion_code': ' ', 'chain_id': ' ', 'match_info': '{"9": ["NH2", 1], "59": ["paam", 6], "60": ["paam", 6]}', 'substructure_query_id': 6}, 95: {'residue_name': 'paam', 'residue_number': 59, 'insertion_code': ' ', 'chain_id': ' ', 'match_info': '{"9": ["NH2", 2], "59": ["paam", 7], "60": ["paam", 7]}', 'substructure_query_id': 7}, 96: {'residue_name': 'paam', 'residue_number': 59, 'insertion_code': ' ', 'chain_id': ' ', 'match_info': '{"9": ["NH2", 3], "59": ["paam", 8], "60": ["paam", 8]}', 'substructure_query_id': 8}, 97: {'residue_name': 'paam', 'residue_number': 59, 'insertion_code': ' ', 'chain_id': ' ', 'match_info': '{"59": ["paam", 11], "60": ["paam", 11]}', 'substructure_query_id': 11}, 98: {'residue_name': 'paam', 'residue_number': 59, 'insertion_code': ' ', 'chain_id': ' ', 'match_info': '{"9": ["NH2", 4], "59": ["paam", 9], "60": ["paam", 9]}', 'substructure_query_id': 9}, 99: {'residue_name': 'paam', 'residue_number': 59, 'insertion_code': ' ', 'chain_id': ' ', 'match_info': '{"9": ["NH2", 5], "59": ["paam", 10], "60": ["paam", 10]}', 'substructure_query_id': 10}, 100: {'residue_name': 'paam', 'residue_number': 61, 'insertion_code': ' ', 'chain_id': ' ', 'match_info': '{"61": ["paam", 2], "64": ["paam", 2]}', 'substructure_query_id': 2}, 101: {'residue_name': 'paam', 'residue_number': 61, 'insertion_code': ' ', 'chain_id': ' ', 'match_info': '{"61": ["paam", 1], "62": ["paam", 1]}', 'substructure_query_id': 1}, 102: {'residue_name': 'paam', 'residue_number': 61, 'insertion_code': ' ', 'chain_id': ' ', 'match_info': '{"61": ["paam", 3], "64": ["paam", 3]}', 'substructure_query_id': 3}, 103: {'residue_name': 'paam', 'residue_number': 61, 'insertion_code': ' ', 'chain_id': ' ', 'match_info': '{"61": ["paam", 4], "64": ["paam", 4]}', 'substructure_query_id': 4}, 104: {'residue_name': 'paam', 'residue_number': 61, 'insertion_code': ' ', 'chain_id': ' ', 'match_info': '{"10": ["NH2", 1], "61": ["paam", 6], "62": ["paam", 6]}', 'substructure_query_id': 6}, 105: {'residue_name': 'paam', 'residue_number': 61, 'insertion_code': ' ', 'chain_id': ' ', 'match_info': '{"10": ["NH2", 2], "61": ["paam", 7], "62": ["paam", 7]}', 'substructure_query_id': 7}, 106: {'residue_name': 'paam', 'residue_number': 61, 'insertion_code': ' ', 'chain_id': ' ', 'match_info': '{"10": ["NH2", 3], "61": ["paam", 8], "62": ["paam", 8]}', 'substructure_query_id': 8}, 107: {'residue_name': 'paam', 'residue_number': 61, 'insertion_code': ' ', 'chain_id': ' ', 'match_info': '{"61": ["paam", 11], "62": ["paam", 11]}', 'substructure_query_id': 11}, 108: {'residue_name': 'paam', 'residue_number': 61, 'insertion_code': ' ', 'chain_id': ' ', 'match_info': '{"10": ["NH2", 4], "61": ["paam", 9], "62": ["paam", 9]}', 'substructure_query_id': 9}, 109: {'residue_name': 'paam', 'residue_number': 61, 'insertion_code': ' ', 'chain_id': ' ', 'match_info': '{"10": ["NH2", 5], "61": ["paam", 10], "62": ["paam", 10]}', 'substructure_query_id': 10}, 110: {'residue_name': 'paam', 'residue_number': 63, 'insertion_code': ' ', 'chain_id': ' ', 'match_info': '{"63": ["paam", 2], "66": ["paam", 2]}', 'substructure_query_id': 2}, 111: {'residue_name': 'paam', 'residue_number': 63, 'insertion_code': ' ', 'chain_id': ' ', 'match_info': '{"63": ["paam", 1], "64": ["paam", 1]}', 'substructure_query_id': 1}, 112: {'residue_name': 'paam', 'residue_number': 63, 'insertion_code': ' ', 'chain_id': ' ', 'match_info': '{"63": ["paam", 3], "66": ["paam", 3]}', 'substructure_query_id': 3}, 113: {'residue_name': 'paam', 'residue_number': 63, 'insertion_code': ' ', 'chain_id': ' ', 'match_info': '{"63": ["paam", 4], "66": ["paam", 4]}', 'substructure_query_id': 4}, 114: {'residue_name': 'paam', 'residue_number': 63, 'insertion_code': ' ', 'chain_id': ' ', 'match_info': '{"11": ["NH2", 1], "63": ["paam", 6], "64": ["paam", 6]}', 'substructure_query_id': 6}, 115: {'residue_name': 'paam', 'residue_number': 63, 'insertion_code': ' ', 'chain_id': ' ', 'match_info': '{"11": ["NH2", 2], "63": ["paam", 7], "64": ["paam", 7]}', 'substructure_query_id': 7}, 116: {'residue_name': 'paam', 'residue_number': 63, 'insertion_code': ' ', 'chain_id': ' ', 'match_info': '{"11": ["NH2", 3], "63": ["paam", 8], "64": ["paam", 8]}', 'substructure_query_id': 8}, 117: {'residue_name': 'paam', 'residue_number': 63, 'insertion_code': ' ', 'chain_id': ' ', 'match_info': '{"63": ["paam", 11], "64": ["paam", 11]}', 'substructure_query_id': 11}, 118: {'residue_name': 'paam', 'residue_number': 63, 'insertion_code': ' ', 'chain_id': ' ', 'match_info': '{"11": ["NH2", 4], "63": ["paam", 9], "64": ["paam", 9]}', 'substructure_query_id': 9}, 119: {'residue_name': 'paam', 'residue_number': 63, 'insertion_code': ' ', 'chain_id': ' ', 'match_info': '{"11": ["NH2", 5], "63": ["paam", 10], "64": ["paam", 10]}', 'substructure_query_id': 10}, 120: {'residue_name': 'paam', 'residue_number': 65, 'insertion_code': ' ', 'chain_id': ' ', 'match_info': '{"65": ["paam", 2], "68": ["paam", 2]}', 'substructure_query_id': 2}, 121: {'residue_name': 'paam', 'residue_number': 65, 'insertion_code': ' ', 'chain_id': ' ', 'match_info': '{"65": ["paam", 1], "66": ["paam", 1]}', 'substructure_query_id': 1}, 122: {'residue_name': 'paam', 'residue_number': 65, 'insertion_code': ' ', 'chain_id': ' ', 'match_info': '{"65": ["paam", 3], "68": ["paam", 3]}', 'substructure_query_id': 3}, 123: {'residue_name': 'paam', 'residue_number': 65, 'insertion_code': ' ', 'chain_id': ' ', 'match_info': '{"65": ["paam", 4], "68": ["paam", 4]}', 'substructure_query_id': 4}, 124: {'residue_name': 'paam', 'residue_number': 65, 'insertion_code': ' ', 'chain_id': ' ', 'match_info': '{"12": ["NH2", 1], "65": ["paam", 6], "66": ["paam", 6]}', 'substructure_query_id': 6}, 125: {'residue_name': 'paam', 'residue_number': 65, 'insertion_code': ' ', 'chain_id': ' ', 'match_info': '{"12": ["NH2", 2], "65": ["paam", 7], "66": ["paam", 7]}', 'substructure_query_id': 7}, 126: {'residue_name': 'paam', 'residue_number': 65, 'insertion_code': ' ', 'chain_id': ' ', 'match_info': '{"12": ["NH2", 3], "65": ["paam", 8], "66": ["paam", 8]}', 'substructure_query_id': 8}, 127: {'residue_name': 'paam', 'residue_number': 65, 'insertion_code': ' ', 'chain_id': ' ', 'match_info': '{"65": ["paam", 11], "66": ["paam", 11]}', 'substructure_query_id': 11}, 128: {'residue_name': 'paam', 'residue_number': 65, 'insertion_code': ' ', 'chain_id': ' ', 'match_info': '{"12": ["NH2", 4], "65": ["paam", 9], "66": ["paam", 9]}', 'substructure_query_id': 9}, 129: {'residue_name': 'paam', 'residue_number': 65, 'insertion_code': ' ', 'chain_id': ' ', 'match_info': '{"12": ["NH2", 5], "65": ["paam", 10], "66": ["paam", 10]}', 'substructure_query_id': 10}, 130: {'residue_name': 'paam', 'residue_number': 67, 'insertion_code': ' ', 'chain_id': ' ', 'match_info': '{"67": ["paam", 2], "70": ["paam", 2]}', 'substructure_query_id': 2}, 131: {'residue_name': 'paam', 'residue_number': 67, 'insertion_code': ' ', 'chain_id': ' ', 'match_info': '{"67": ["paam", 1], "68": ["paam", 1]}', 'substructure_query_id': 1}, 132: {'residue_name': 'paam', 'residue_number': 67, 'insertion_code': ' ', 'chain_id': ' ', 'match_info': '{"67": ["paam", 3], "70": ["paam", 3]}', 'substructure_query_id': 3}, 133: {'residue_name': 'paam', 'residue_number': 67, 'insertion_code': ' ', 'chain_id': ' ', 'match_info': '{"67": ["paam", 4], "70": ["paam", 4]}', 'substructure_query_id': 4}, 134: {'residue_name': 'paam', 'residue_number': 67, 'insertion_code': ' ', 'chain_id': ' ', 'match_info': '{"13": ["NH2", 1], "67": ["paam", 6], "68": ["paam", 6]}', 'substructure_query_id': 6}, 135: {'residue_name': 'paam', 'residue_number': 67, 'insertion_code': ' ', 'chain_id': ' ', 'match_info': '{"13": ["NH2", 2], "67": ["paam", 7], "68": ["paam", 7]}', 'substructure_query_id': 7}, 136: {'residue_name': 'paam', 'residue_number': 67, 'insertion_code': ' ', 'chain_id': ' ', 'match_info': '{"13": ["NH2", 3], "67": ["paam", 8], "68": ["paam", 8]}', 'substructure_query_id': 8}, 137: {'residue_name': 'paam', 'residue_number': 67, 'insertion_code': ' ', 'chain_id': ' ', 'match_info': '{"67": ["paam", 11], "68": ["paam", 11]}', 'substructure_query_id': 11}, 138: {'residue_name': 'paam', 'residue_number': 67, 'insertion_code': ' ', 'chain_id': ' ', 'match_info': '{"13": ["NH2", 4], "67": ["paam", 9], "68": ["paam", 9]}', 'substructure_query_id': 9}, 139: {'residue_name': 'paam', 'residue_number': 67, 'insertion_code': ' ', 'chain_id': ' ', 'match_info': '{"13": ["NH2", 5], "67": ["paam", 10], "68": ["paam", 10]}', 'substructure_query_id': 10}, 140: {'residue_name': 'paam', 'residue_number': 69, 'insertion_code': ' ', 'chain_id': ' ', 'match_info': '{"69": ["paam", 2], "72": ["paam", 2]}', 'substructure_query_id': 2}, 141: {'residue_name': 'paam', 'residue_number': 69, 'insertion_code': ' ', 'chain_id': ' ', 'match_info': '{"69": ["paam", 1], "70": ["paam", 1]}', 'substructure_query_id': 1}, 142: {'residue_name': 'paam', 'residue_number': 69, 'insertion_code': ' ', 'chain_id': ' ', 'match_info': '{"69": ["paam", 3], "72": ["paam", 3]}', 'substructure_query_id': 3}, 143: {'residue_name': 'paam', 'residue_number': 69, 'insertion_code': ' ', 'chain_id': ' ', 'match_info': '{"69": ["paam", 4], "72": ["paam", 4]}', 'substructure_query_id': 4}, 144: {'residue_name': 'paam', 'residue_number': 69, 'insertion_code': ' ', 'chain_id': ' ', 'match_info': '{"14": ["NH2", 1], "69": ["paam", 6], "70": ["paam", 6]}', 'substructure_query_id': 6}, 145: {'residue_name': 'paam', 'residue_number': 69, 'insertion_code': ' ', 'chain_id': ' ', 'match_info': '{"14": ["NH2", 2], "69": ["paam", 7], "70": ["paam", 7]}', 'substructure_query_id': 7}, 146: {'residue_name': 'paam', 'residue_number': 69, 'insertion_code': ' ', 'chain_id': ' ', 'match_info': '{"14": ["NH2", 3], "69": ["paam", 8], "70": ["paam", 8]}', 'substructure_query_id': 8}, 147: {'residue_name': 'paam', 'residue_number': 69, 'insertion_code': ' ', 'chain_id': ' ', 'match_info': '{"69": ["paam", 11], "70": ["paam", 11]}', 'substructure_query_id': 11}, 148: {'residue_name': 'paam', 'residue_number': 69, 'insertion_code': ' ', 'chain_id': ' ', 'match_info': '{"14": ["NH2", 4], "69": ["paam", 9], "70": ["paam", 9]}', 'substructure_query_id': 9}, 149: {'residue_name': 'paam', 'residue_number': 69, 'insertion_code': ' ', 'chain_id': ' ', 'match_info': '{"14": ["NH2", 5], "69": ["paam", 10], "70": ["paam", 10]}', 'substructure_query_id': 10}, 150: {'residue_name': 'paam', 'residue_number': 71, 'insertion_code': ' ', 'chain_id': ' ', 'match_info': '{"71": ["paam", 2], "74": ["paam", 2]}', 'substructure_query_id': 2}, 151: {'residue_name': 'paam', 'residue_number': 71, 'insertion_code': ' ', 'chain_id': ' ', 'match_info': '{"71": ["paam", 1], "72": ["paam", 1]}', 'substructure_query_id': 1}, 152: {'residue_name': 'paam', 'residue_number': 71, 'insertion_code': ' ', 'chain_id': ' ', 'match_info': '{"71": ["paam", 3], "74": ["paam", 3]}', 'substructure_query_id': 3}, 153: {'residue_name': 'paam', 'residue_number': 71, 'insertion_code': ' ', 'chain_id': ' ', 'match_info': '{"71": ["paam", 4], "74": ["paam", 4]}', 'substructure_query_id': 4}, 154: {'residue_name': 'paam', 'residue_number': 71, 'insertion_code': ' ', 'chain_id': ' ', 'match_info': '{"15": ["NH2", 1], "71": ["paam", 6], "72": ["paam", 6]}', 'substructure_query_id': 6}, 155: {'residue_name': 'paam', 'residue_number': 71, 'insertion_code': ' ', 'chain_id': ' ', 'match_info': '{"15": ["NH2", 2], "71": ["paam", 7], "72": ["paam", 7]}', 'substructure_query_id': 7}, 156: {'residue_name': 'paam', 'residue_number': 71, 'insertion_code': ' ', 'chain_id': ' ', 'match_info': '{"15": ["NH2", 3], "71": ["paam", 8], "72": ["paam", 8]}', 'substructure_query_id': 8}, 157: {'residue_name': 'paam', 'residue_number': 71, 'insertion_code': ' ', 'chain_id': ' ', 'match_info': '{"71": ["paam", 11], "72": ["paam", 11]}', 'substructure_query_id': 11}, 158: {'residue_name': 'paam', 'residue_number': 71, 'insertion_code': ' ', 'chain_id': ' ', 'match_info': '{"15": ["NH2", 4], "71": ["paam", 9], "72": ["paam", 9]}', 'substructure_query_id': 9}, 159: {'residue_name': 'paam', 'residue_number': 71, 'insertion_code': ' ', 'chain_id': ' ', 'match_info': '{"15": ["NH2", 5], "71": ["paam", 10], "72": ["paam", 10]}', 'substructure_query_id': 10}, 160: {'residue_name': 'paam', 'residue_number': 73, 'insertion_code': ' ', 'chain_id': ' ', 'match_info': '{"73": ["paam", 2], "76": ["paam", 2]}', 'substructure_query_id': 2}, 161: {'residue_name': 'paam', 'residue_number': 73, 'insertion_code': ' ', 'chain_id': ' ', 'match_info': '{"73": ["paam", 1], "74": ["paam", 1]}', 'substructure_query_id': 1}, 162: {'residue_name': 'paam', 'residue_number': 73, 'insertion_code': ' ', 'chain_id': ' ', 'match_info': '{"73": ["paam", 3], "76": ["paam", 3]}', 'substructure_query_id': 3}, 163: {'residue_name': 'paam', 'residue_number': 73, 'insertion_code': ' ', 'chain_id': ' ', 'match_info': '{"73": ["paam", 4], "76": ["paam", 4]}', 'substructure_query_id': 4}, 164: {'residue_name': 'paam', 'residue_number': 73, 'insertion_code': ' ', 'chain_id': ' ', 'match_info': '{"16": ["NH2", 1], "73": ["paam", 6], "74": ["paam", 6]}', 'substructure_query_id': 6}, 165: {'residue_name': 'paam', 'residue_number': 73, 'insertion_code': ' ', 'chain_id': ' ', 'match_info': '{"16": ["NH2", 2], "73": ["paam", 7], "74": ["paam", 7]}', 'substructure_query_id': 7}, 166: {'residue_name': 'paam', 'residue_number': 73, 'insertion_code': ' ', 'chain_id': ' ', 'match_info': '{"16": ["NH2", 3], "73": ["paam", 8], "74": ["paam", 8]}', 'substructure_query_id': 8}, 167: {'residue_name': 'paam', 'residue_number': 73, 'insertion_code': ' ', 'chain_id': ' ', 'match_info': '{"73": ["paam", 11], "74": ["paam", 11]}', 'substructure_query_id': 11}, 168: {'residue_name': 'paam', 'residue_number': 73, 'insertion_code': ' ', 'chain_id': ' ', 'match_info': '{"16": ["NH2", 4], "73": ["paam", 9], "74": ["paam", 9]}', 'substructure_query_id': 9}, 169: {'residue_name': 'paam', 'residue_number': 73, 'insertion_code': ' ', 'chain_id': ' ', 'match_info': '{"16": ["NH2", 5], "73": ["paam", 10], "74": ["paam", 10]}', 'substructure_query_id': 10}, 170: {'residue_name': 'paam', 'residue_number': 75, 'insertion_code': ' ', 'chain_id': ' ', 'match_info': '{"75": ["paam", 2], "78": ["paam", 2]}', 'substructure_query_id': 2}, 171: {'residue_name': 'paam', 'residue_number': 75, 'insertion_code': ' ', 'chain_id': ' ', 'match_info': '{"75": ["paam", 1], "76": ["paam", 1]}', 'substructure_query_id': 1}, 172: {'residue_name': 'paam', 'residue_number': 75, 'insertion_code': ' ', 'chain_id': ' ', 'match_info': '{"75": ["paam", 3], "78": ["paam", 3]}', 'substructure_query_id': 3}, 173: {'residue_name': 'paam', 'residue_number': 75, 'insertion_code': ' ', 'chain_id': ' ', 'match_info': '{"75": ["paam", 4], "78": ["paam", 4]}', 'substructure_query_id': 4}, 174: {'residue_name': 'paam', 'residue_number': 75, 'insertion_code': ' ', 'chain_id': ' ', 'match_info': '{"17": ["NH2", 1], "75": ["paam", 6], "76": ["paam", 6]}', 'substructure_query_id': 6}, 175: {'residue_name': 'paam', 'residue_number': 75, 'insertion_code': ' ', 'chain_id': ' ', 'match_info': '{"17": ["NH2", 2], "75": ["paam", 7], "76": ["paam", 7]}', 'substructure_query_id': 7}, 176: {'residue_name': 'paam', 'residue_number': 75, 'insertion_code': ' ', 'chain_id': ' ', 'match_info': '{"17": ["NH2", 3], "75": ["paam", 8], "76": ["paam", 8]}', 'substructure_query_id': 8}, 177: {'residue_name': 'paam', 'residue_number': 75, 'insertion_code': ' ', 'chain_id': ' ', 'match_info': '{"75": ["paam", 11], "76": ["paam", 11]}', 'substructure_query_id': 11}, 178: {'residue_name': 'paam', 'residue_number': 75, 'insertion_code': ' ', 'chain_id': ' ', 'match_info': '{"17": ["NH2", 4], "75": ["paam", 9], "76": ["paam", 9]}', 'substructure_query_id': 9}, 179: {'residue_name': 'paam', 'residue_number': 75, 'insertion_code': ' ', 'chain_id': ' ', 'match_info': '{"17": ["NH2", 5], "75": ["paam", 10], "76": ["paam", 10]}', 'substructure_query_id': 10}, 180: {'residue_name': 'paam', 'residue_number': 77, 'insertion_code': ' ', 'chain_id': ' ', 'match_info': '{"77": ["paam", 2], "80": ["paam", 2]}', 'substructure_query_id': 2}, 181: {'residue_name': 'paam', 'residue_number': 77, 'insertion_code': ' ', 'chain_id': ' ', 'match_info': '{"77": ["paam", 1], "78": ["paam", 1]}', 'substructure_query_id': 1}, 182: {'residue_name': 'paam', 'residue_number': 77, 'insertion_code': ' ', 'chain_id': ' ', 'match_info': '{"77": ["paam", 3], "80": ["paam", 3]}', 'substructure_query_id': 3}, 183: {'residue_name': 'paam', 'residue_number': 77, 'insertion_code': ' ', 'chain_id': ' ', 'match_info': '{"77": ["paam", 4], "80": ["paam", 4]}', 'substructure_query_id': 4}, 184: {'residue_name': 'paam', 'residue_number': 77, 'insertion_code': ' ', 'chain_id': ' ', 'match_info': '{"18": ["NH2", 1], "77": ["paam", 6], "78": ["paam", 6]}', 'substructure_query_id': 6}, 185: {'residue_name': 'paam', 'residue_number': 77, 'insertion_code': ' ', 'chain_id': ' ', 'match_info': '{"18": ["NH2", 2], "77": ["paam", 7], "78": ["paam", 7]}', 'substructure_query_id': 7}, 186: {'residue_name': 'paam', 'residue_number': 77, 'insertion_code': ' ', 'chain_id': ' ', 'match_info': '{"18": ["NH2", 3], "77": ["paam", 8], "78": ["paam", 8]}', 'substructure_query_id': 8}, 187: {'residue_name': 'paam', 'residue_number': 77, 'insertion_code': ' ', 'chain_id': ' ', 'match_info': '{"77": ["paam", 11], "78": ["paam", 11]}', 'substructure_query_id': 11}, 188: {'residue_name': 'paam', 'residue_number': 77, 'insertion_code': ' ', 'chain_id': ' ', 'match_info': '{"18": ["NH2", 4], "77": ["paam", 9], "78": ["paam", 9]}', 'substructure_query_id': 9}, 189: {'residue_name': 'paam', 'residue_number': 77, 'insertion_code': ' ', 'chain_id': ' ', 'match_info': '{"18": ["NH2", 5], "77": ["paam", 10], "78": ["paam", 10]}', 'substructure_query_id': 10}, 190: {'residue_name': 'paam', 'residue_number': 79, 'insertion_code': ' ', 'chain_id': ' ', 'match_info': '{"79": ["paam", 2], "82": ["paam", 2]}', 'substructure_query_id': 2}, 191: {'residue_name': 'paam', 'residue_number': 79, 'insertion_code': ' ', 'chain_id': ' ', 'match_info': '{"79": ["paam", 1], "80": ["paam", 1]}', 'substructure_query_id': 1}, 192: {'residue_name': 'paam', 'residue_number': 79, 'insertion_code': ' ', 'chain_id': ' ', 'match_info': '{"79": ["paam", 3], "82": ["paam", 3]}', 'substructure_query_id': 3}, 193: {'residue_name': 'paam', 'residue_number': 79, 'insertion_code': ' ', 'chain_id': ' ', 'match_info': '{"79": ["paam", 4], "82": ["paam", 4]}', 'substructure_query_id': 4}, 194: {'residue_name': 'paam', 'residue_number': 79, 'insertion_code': ' ', 'chain_id': ' ', 'match_info': '{"19": ["NH2", 1], "79": ["paam", 6], "80": ["paam", 6]}', 'substructure_query_id': 6}, 195: {'residue_name': 'paam', 'residue_number': 79, 'insertion_code': ' ', 'chain_id': ' ', 'match_info': '{"19": ["NH2", 2], "79": ["paam", 7], "80": ["paam", 7]}', 'substructure_query_id': 7}, 196: {'residue_name': 'paam', 'residue_number': 79, 'insertion_code': ' ', 'chain_id': ' ', 'match_info': '{"19": ["NH2", 3], "79": ["paam", 8], "80": ["paam", 8]}', 'substructure_query_id': 8}, 197: {'residue_name': 'paam', 'residue_number': 79, 'insertion_code': ' ', 'chain_id': ' ', 'match_info': '{"79": ["paam", 11], "80": ["paam", 11]}', 'substructure_query_id': 11}, 198: {'residue_name': 'paam', 'residue_number': 79, 'insertion_code': ' ', 'chain_id': ' ', 'match_info': '{"19": ["NH2", 4], "79": ["paam", 9], "80": ["paam", 9]}', 'substructure_query_id': 9}, 199: {'residue_name': 'paam', 'residue_number': 79, 'insertion_code': ' ', 'chain_id': ' ', 'match_info': '{"19": ["NH2", 5], "79": ["paam", 10], "80": ["paam", 10]}', 'substructure_query_id': 10}, 200: {'residue_name': 'paam', 'residue_number': 81, 'insertion_code': ' ', 'chain_id': ' ', 'match_info': '{"81": ["paam", 2], "84": ["paam", 2]}', 'substructure_query_id': 2}, 201: {'residue_name': 'paam', 'residue_number': 81, 'insertion_code': ' ', 'chain_id': ' ', 'match_info': '{"81": ["paam", 1], "82": ["paam", 1]}', 'substructure_query_id': 1}, 202: {'residue_name': 'paam', 'residue_number': 81, 'insertion_code': ' ', 'chain_id': ' ', 'match_info': '{"81": ["paam", 3], "84": ["paam", 3]}', 'substructure_query_id': 3}, 203: {'residue_name': 'paam', 'residue_number': 81, 'insertion_code': ' ', 'chain_id': ' ', 'match_info': '{"81": ["paam", 4], "84": ["paam", 4]}', 'substructure_query_id': 4}, 204: {'residue_name': 'paam', 'residue_number': 81, 'insertion_code': ' ', 'chain_id': ' ', 'match_info': '{"20": ["NH2", 1], "81": ["paam", 6], "82": ["paam", 6]}', 'substructure_query_id': 6}, 205: {'residue_name': 'paam', 'residue_number': 81, 'insertion_code': ' ', 'chain_id': ' ', 'match_info': '{"20": ["NH2", 2], "81": ["paam", 7], "82": ["paam", 7]}', 'substructure_query_id': 7}, 206: {'residue_name': 'paam', 'residue_number': 81, 'insertion_code': ' ', 'chain_id': ' ', 'match_info': '{"20": ["NH2", 3], "81": ["paam", 8], "82": ["paam", 8]}', 'substructure_query_id': 8}, 207: {'residue_name': 'paam', 'residue_number': 81, 'insertion_code': ' ', 'chain_id': ' ', 'match_info': '{"81": ["paam", 11], "82": ["paam", 11]}', 'substructure_query_id': 11}, 208: {'residue_name': 'paam', 'residue_number': 81, 'insertion_code': ' ', 'chain_id': ' ', 'match_info': '{"20": ["NH2", 4], "81": ["paam", 9], "82": ["paam", 9]}', 'substructure_query_id': 9}, 209: {'residue_name': 'paam', 'residue_number': 81, 'insertion_code': ' ', 'chain_id': ' ', 'match_info': '{"20": ["NH2", 5], "81": ["paam", 10], "82": ["paam", 10]}', 'substructure_query_id': 10}, 210: {'residue_name': 'paam', 'residue_number': 83, 'insertion_code': ' ', 'chain_id': ' ', 'match_info': '{"83": ["paam", 2], "86": ["paam", 2]}', 'substructure_query_id': 2}, 211: {'residue_name': 'paam', 'residue_number': 83, 'insertion_code': ' ', 'chain_id': ' ', 'match_info': '{"83": ["paam", 1], "84": ["paam", 1]}', 'substructure_query_id': 1}, 212: {'residue_name': 'paam', 'residue_number': 83, 'insertion_code': ' ', 'chain_id': ' ', 'match_info': '{"83": ["paam", 3], "86": ["paam", 3]}', 'substructure_query_id': 3}, 213: {'residue_name': 'paam', 'residue_number': 83, 'insertion_code': ' ', 'chain_id': ' ', 'match_info': '{"83": ["paam", 4], "86": ["paam", 4]}', 'substructure_query_id': 4}, 214: {'residue_name': 'paam', 'residue_number': 83, 'insertion_code': ' ', 'chain_id': ' ', 'match_info': '{"21": ["NH2", 1], "83": ["paam", 6], "84": ["paam", 6]}', 'substructure_query_id': 6}, 215: {'residue_name': 'paam', 'residue_number': 83, 'insertion_code': ' ', 'chain_id': ' ', 'match_info': '{"21": ["NH2", 2], "83": ["paam", 7], "84": ["paam", 7]}', 'substructure_query_id': 7}, 216: {'residue_name': 'paam', 'residue_number': 83, 'insertion_code': ' ', 'chain_id': ' ', 'match_info': '{"21": ["NH2", 3], "83": ["paam", 8], "84": ["paam", 8]}', 'substructure_query_id': 8}, 217: {'residue_name': 'paam', 'residue_number': 83, 'insertion_code': ' ', 'chain_id': ' ', 'match_info': '{"83": ["paam", 11], "84": ["paam", 11]}', 'substructure_query_id': 11}, 218: {'residue_name': 'paam', 'residue_number': 83, 'insertion_code': ' ', 'chain_id': ' ', 'match_info': '{"21": ["NH2", 4], "83": ["paam", 9], "84": ["paam", 9]}', 'substructure_query_id': 9}, 219: {'residue_name': 'paam', 'residue_number': 83, 'insertion_code': ' ', 'chain_id': ' ', 'match_info': '{"21": ["NH2", 5], "83": ["paam", 10], "84": ["paam", 10]}', 'substructure_query_id': 10}, 220: {'residue_name': 'paam', 'residue_number': 85, 'insertion_code': ' ', 'chain_id': ' ', 'match_info': '{"85": ["paam", 2], "88": ["paam", 2]}', 'substructure_query_id': 2}, 221: {'residue_name': 'paam', 'residue_number': 85, 'insertion_code': ' ', 'chain_id': ' ', 'match_info': '{"85": ["paam", 1], "86": ["paam", 1]}', 'substructure_query_id': 1}, 222: {'residue_name': 'paam', 'residue_number': 85, 'insertion_code': ' ', 'chain_id': ' ', 'match_info': '{"85": ["paam", 3], "88": ["paam", 3]}', 'substructure_query_id': 3}, 223: {'residue_name': 'paam', 'residue_number': 85, 'insertion_code': ' ', 'chain_id': ' ', 'match_info': '{"85": ["paam", 4], "88": ["paam", 4]}', 'substructure_query_id': 4}, 224: {'residue_name': 'paam', 'residue_number': 85, 'insertion_code': ' ', 'chain_id': ' ', 'match_info': '{"22": ["NH2", 1], "85": ["paam", 6], "86": ["paam", 6]}', 'substructure_query_id': 6}, 225: {'residue_name': 'paam', 'residue_number': 85, 'insertion_code': ' ', 'chain_id': ' ', 'match_info': '{"22": ["NH2", 2], "85": ["paam", 7], "86": ["paam", 7]}', 'substructure_query_id': 7}, 226: {'residue_name': 'paam', 'residue_number': 85, 'insertion_code': ' ', 'chain_id': ' ', 'match_info': '{"22": ["NH2", 3], "85": ["paam", 8], "86": ["paam", 8]}', 'substructure_query_id': 8}, 227: {'residue_name': 'paam', 'residue_number': 85, 'insertion_code': ' ', 'chain_id': ' ', 'match_info': '{"85": ["paam", 11], "86": ["paam", 11]}', 'substructure_query_id': 11}, 228: {'residue_name': 'paam', 'residue_number': 85, 'insertion_code': ' ', 'chain_id': ' ', 'match_info': '{"22": ["NH2", 4], "85": ["paam", 9], "86": ["paam", 9]}', 'substructure_query_id': 9}, 229: {'residue_name': 'paam', 'residue_number': 85, 'insertion_code': ' ', 'chain_id': ' ', 'match_info': '{"22": ["NH2", 5], "85": ["paam", 10], "86": ["paam", 10]}', 'substructure_query_id': 10}, 230: {'residue_name': 'paam', 'residue_number': 87, 'insertion_code': ' ', 'chain_id': ' ', 'match_info': '{"87": ["paam", 2], "90": ["paam", 2]}', 'substructure_query_id': 2}, 231: {'residue_name': 'paam', 'residue_number': 87, 'insertion_code': ' ', 'chain_id': ' ', 'match_info': '{"87": ["paam", 1], "88": ["paam", 1]}', 'substructure_query_id': 1}, 232: {'residue_name': 'paam', 'residue_number': 87, 'insertion_code': ' ', 'chain_id': ' ', 'match_info': '{"87": ["paam", 3], "90": ["paam", 3]}', 'substructure_query_id': 3}, 233: {'residue_name': 'paam', 'residue_number': 87, 'insertion_code': ' ', 'chain_id': ' ', 'match_info': '{"87": ["paam", 4], "90": ["paam", 4]}', 'substructure_query_id': 4}, 234: {'residue_name': 'paam', 'residue_number': 87, 'insertion_code': ' ', 'chain_id': ' ', 'match_info': '{"23": ["NH2", 1], "87": ["paam", 6], "88": ["paam", 6]}', 'substructure_query_id': 6}, 235: {'residue_name': 'paam', 'residue_number': 87, 'insertion_code': ' ', 'chain_id': ' ', 'match_info': '{"23": ["NH2", 2], "87": ["paam", 7], "88": ["paam", 7]}', 'substructure_query_id': 7}, 236: {'residue_name': 'paam', 'residue_number': 87, 'insertion_code': ' ', 'chain_id': ' ', 'match_info': '{"23": ["NH2", 3], "87": ["paam", 8], "88": ["paam", 8]}', 'substructure_query_id': 8}, 237: {'residue_name': 'paam', 'residue_number': 87, 'insertion_code': ' ', 'chain_id': ' ', 'match_info': '{"87": ["paam", 11], "88": ["paam", 11]}', 'substructure_query_id': 11}, 238: {'residue_name': 'paam', 'residue_number': 87, 'insertion_code': ' ', 'chain_id': ' ', 'match_info': '{"23": ["NH2", 4], "87": ["paam", 9], "88": ["paam", 9]}', 'substructure_query_id': 9}, 239: {'residue_name': 'paam', 'residue_number': 87, 'insertion_code': ' ', 'chain_id': ' ', 'match_info': '{"23": ["NH2", 5], "87": ["paam", 10], "88": ["paam", 10]}', 'substructure_query_id': 10}, 240: {'residue_name': 'paam', 'residue_number': 89, 'insertion_code': ' ', 'chain_id': ' ', 'match_info': '{"89": ["paam", 2], "92": ["paam", 2]}', 'substructure_query_id': 2}, 241: {'residue_name': 'paam', 'residue_number': 89, 'insertion_code': ' ', 'chain_id': ' ', 'match_info': '{"89": ["paam", 1], "90": ["paam", 1]}', 'substructure_query_id': 1}, 242: {'residue_name': 'paam', 'residue_number': 89, 'insertion_code': ' ', 'chain_id': ' ', 'match_info': '{"89": ["paam", 3], "92": ["paam", 3]}', 'substructure_query_id': 3}, 243: {'residue_name': 'paam', 'residue_number': 89, 'insertion_code': ' ', 'chain_id': ' ', 'match_info': '{"89": ["paam", 4], "92": ["paam", 4]}', 'substructure_query_id': 4}, 244: {'residue_name': 'paam', 'residue_number': 89, 'insertion_code': ' ', 'chain_id': ' ', 'match_info': '{"24": ["NH2", 1], "89": ["paam", 6], "90": ["paam", 6]}', 'substructure_query_id': 6}, 245: {'residue_name': 'paam', 'residue_number': 89, 'insertion_code': ' ', 'chain_id': ' ', 'match_info': '{"24": ["NH2", 2], "89": ["paam", 7], "90": ["paam", 7]}', 'substructure_query_id': 7}, 246: {'residue_name': 'paam', 'residue_number': 89, 'insertion_code': ' ', 'chain_id': ' ', 'match_info': '{"24": ["NH2", 3], "89": ["paam", 8], "90": ["paam", 8]}', 'substructure_query_id': 8}, 247: {'residue_name': 'paam', 'residue_number': 89, 'insertion_code': ' ', 'chain_id': ' ', 'match_info': '{"89": ["paam", 11], "90": ["paam", 11]}', 'substructure_query_id': 11}, 248: {'residue_name': 'paam', 'residue_number': 89, 'insertion_code': ' ', 'chain_id': ' ', 'match_info': '{"24": ["NH2", 4], "89": ["paam", 9], "90": ["paam", 9]}', 'substructure_query_id': 9}, 249: {'residue_name': 'paam', 'residue_number': 89, 'insertion_code': ' ', 'chain_id': ' ', 'match_info': '{"24": ["NH2", 5], "89": ["paam", 10], "90": ["paam", 10]}', 'substructure_query_id': 10}, 250: {'residue_name': 'paam', 'residue_number': 91, 'insertion_code': ' ', 'chain_id': ' ', 'match_info': '{"91": ["paam", 2], "94": ["paam", 2]}', 'substructure_query_id': 2}, 251: {'residue_name': 'paam', 'residue_number': 91, 'insertion_code': ' ', 'chain_id': ' ', 'match_info': '{"91": ["paam", 1], "92": ["paam", 1]}', 'substructure_query_id': 1}, 252: {'residue_name': 'paam', 'residue_number': 91, 'insertion_code': ' ', 'chain_id': ' ', 'match_info': '{"91": ["paam", 3], "94": ["paam", 3]}', 'substructure_query_id': 3}, 253: {'residue_name': 'paam', 'residue_number': 91, 'insertion_code': ' ', 'chain_id': ' ', 'match_info': '{"91": ["paam", 4], "94": ["paam", 4]}', 'substructure_query_id': 4}, 254: {'residue_name': 'paam', 'residue_number': 91, 'insertion_code': ' ', 'chain_id': ' ', 'match_info': '{"25": ["NH2", 1], "91": ["paam", 6], "92": ["paam", 6]}', 'substructure_query_id': 6}, 255: {'residue_name': 'paam', 'residue_number': 91, 'insertion_code': ' ', 'chain_id': ' ', 'match_info': '{"25": ["NH2", 2], "91": ["paam", 7], "92": ["paam", 7]}', 'substructure_query_id': 7}, 256: {'residue_name': 'paam', 'residue_number': 91, 'insertion_code': ' ', 'chain_id': ' ', 'match_info': '{"25": ["NH2", 3], "91": ["paam", 8], "92": ["paam", 8]}', 'substructure_query_id': 8}, 257: {'residue_name': 'paam', 'residue_number': 91, 'insertion_code': ' ', 'chain_id': ' ', 'match_info': '{"91": ["paam", 11], "92": ["paam", 11]}', 'substructure_query_id': 11}, 258: {'residue_name': 'paam', 'residue_number': 91, 'insertion_code': ' ', 'chain_id': ' ', 'match_info': '{"25": ["NH2", 4], "91": ["paam", 9], "92": ["paam", 9]}', 'substructure_query_id': 9}, 259: {'residue_name': 'paam', 'residue_number': 91, 'insertion_code': ' ', 'chain_id': ' ', 'match_info': '{"25": ["NH2", 5], "91": ["paam", 10], "92": ["paam", 10]}', 'substructure_query_id': 10}, 260: {'residue_name': 'paam', 'residue_number': 93, 'insertion_code': ' ', 'chain_id': ' ', 'match_info': '{"93": ["paam", 2], "96": ["paam", 2]}', 'substructure_query_id': 2}, 261: {'residue_name': 'paam', 'residue_number': 93, 'insertion_code': ' ', 'chain_id': ' ', 'match_info': '{"93": ["paam", 1], "94": ["paam", 1]}', 'substructure_query_id': 1}, 262: {'residue_name': 'paam', 'residue_number': 93, 'insertion_code': ' ', 'chain_id': ' ', 'match_info': '{"93": ["paam", 3], "96": ["paam", 3]}', 'substructure_query_id': 3}, 263: {'residue_name': 'paam', 'residue_number': 93, 'insertion_code': ' ', 'chain_id': ' ', 'match_info': '{"93": ["paam", 4], "96": ["paam", 4]}', 'substructure_query_id': 4}, 264: {'residue_name': 'paam', 'residue_number': 93, 'insertion_code': ' ', 'chain_id': ' ', 'match_info': '{"26": ["NH2", 1], "93": ["paam", 6], "94": ["paam", 6]}', 'substructure_query_id': 6}, 265: {'residue_name': 'paam', 'residue_number': 93, 'insertion_code': ' ', 'chain_id': ' ', 'match_info': '{"26": ["NH2", 2], "93": ["paam", 7], "94": ["paam", 7]}', 'substructure_query_id': 7}, 266: {'residue_name': 'paam', 'residue_number': 93, 'insertion_code': ' ', 'chain_id': ' ', 'match_info': '{"26": ["NH2", 3], "93": ["paam", 8], "94": ["paam", 8]}', 'substructure_query_id': 8}, 267: {'residue_name': 'paam', 'residue_number': 93, 'insertion_code': ' ', 'chain_id': ' ', 'match_info': '{"93": ["paam", 11], "94": ["paam", 11]}', 'substructure_query_id': 11}, 268: {'residue_name': 'paam', 'residue_number': 93, 'insertion_code': ' ', 'chain_id': ' ', 'match_info': '{"26": ["NH2", 4], "93": ["paam", 9], "94": ["paam", 9]}', 'substructure_query_id': 9}, 269: {'residue_name': 'paam', 'residue_number': 93, 'insertion_code': ' ', 'chain_id': ' ', 'match_info': '{"26": ["NH2", 5], "93": ["paam", 10], "94": ["paam", 10]}', 'substructure_query_id': 10}, 270: {'residue_name': 'paam', 'residue_number': 95, 'insertion_code': ' ', 'chain_id': ' ', 'match_info': '{"95": ["paam", 2], "98": ["paam", 2]}', 'substructure_query_id': 2}, 271: {'residue_name': 'paam', 'residue_number': 95, 'insertion_code': ' ', 'chain_id': ' ', 'match_info': '{"95": ["paam", 1], "96": ["paam", 1]}', 'substructure_query_id': 1}, 272: {'residue_name': 'paam', 'residue_number': 95, 'insertion_code': ' ', 'chain_id': ' ', 'match_info': '{"95": ["paam", 3], "98": ["paam", 3]}', 'substructure_query_id': 3}, 273: {'residue_name': 'paam', 'residue_number': 95, 'insertion_code': ' ', 'chain_id': ' ', 'match_info': '{"95": ["paam", 4], "98": ["paam", 4]}', 'substructure_query_id': 4}, 274: {'residue_name': 'paam', 'residue_number': 95, 'insertion_code': ' ', 'chain_id': ' ', 'match_info': '{"27": ["NH2", 1], "95": ["paam", 6], "96": ["paam", 6]}', 'substructure_query_id': 6}, 275: {'residue_name': 'paam', 'residue_number': 95, 'insertion_code': ' ', 'chain_id': ' ', 'match_info': '{"27": ["NH2", 2], "95": ["paam", 7], "96": ["paam", 7]}', 'substructure_query_id': 7}, 276: {'residue_name': 'paam', 'residue_number': 95, 'insertion_code': ' ', 'chain_id': ' ', 'match_info': '{"27": ["NH2", 3], "95": ["paam", 8], "96": ["paam", 8]}', 'substructure_query_id': 8}, 277: {'residue_name': 'paam', 'residue_number': 95, 'insertion_code': ' ', 'chain_id': ' ', 'match_info': '{"95": ["paam", 11], "96": ["paam", 11]}', 'substructure_query_id': 11}, 278: {'residue_name': 'paam', 'residue_number': 95, 'insertion_code': ' ', 'chain_id': ' ', 'match_info': '{"27": ["NH2", 4], "95": ["paam", 9], "96": ["paam", 9]}', 'substructure_query_id': 9}, 279: {'residue_name': 'paam', 'residue_number': 95, 'insertion_code': ' ', 'chain_id': ' ', 'match_info': '{"27": ["NH2", 5], "95": ["paam", 10], "96": ["paam", 10]}', 'substructure_query_id': 10}, 280: {'residue_name': 'paam', 'residue_number': 97, 'insertion_code': ' ', 'chain_id': ' ', 'match_info': '{"97": ["paam", 2], "100": ["paam", 2]}', 'substructure_query_id': 2}, 281: {'residue_name': 'paam', 'residue_number': 97, 'insertion_code': ' ', 'chain_id': ' ', 'match_info': '{"97": ["paam", 1], "98": ["paam", 1]}', 'substructure_query_id': 1}, 282: {'residue_name': 'paam', 'residue_number': 97, 'insertion_code': ' ', 'chain_id': ' ', 'match_info': '{"97": ["paam", 3], "100": ["paam", 3]}', 'substructure_query_id': 3}, 283: {'residue_name': 'paam', 'residue_number': 97, 'insertion_code': ' ', 'chain_id': ' ', 'match_info': '{"97": ["paam", 4], "100": ["paam", 4]}', 'substructure_query_id': 4}, 284: {'residue_name': 'paam', 'residue_number': 97, 'insertion_code': ' ', 'chain_id': ' ', 'match_info': '{"28": ["NH2", 1], "97": ["paam", 6], "98": ["paam", 6]}', 'substructure_query_id': 6}, 285: {'residue_name': 'paam', 'residue_number': 97, 'insertion_code': ' ', 'chain_id': ' ', 'match_info': '{"28": ["NH2", 2], "97": ["paam", 7], "98": ["paam", 7]}', 'substructure_query_id': 7}, 286: {'residue_name': 'paam', 'residue_number': 97, 'insertion_code': ' ', 'chain_id': ' ', 'match_info': '{"28": ["NH2", 3], "97": ["paam", 8], "98": ["paam", 8]}', 'substructure_query_id': 8}, 287: {'residue_name': 'paam', 'residue_number': 97, 'insertion_code': ' ', 'chain_id': ' ', 'match_info': '{"97": ["paam", 11], "98": ["paam", 11]}', 'substructure_query_id': 11}, 288: {'residue_name': 'paam', 'residue_number': 97, 'insertion_code': ' ', 'chain_id': ' ', 'match_info': '{"28": ["NH2", 4], "97": ["paam", 9], "98": ["paam", 9]}', 'substructure_query_id': 9}, 289: {'residue_name': 'paam', 'residue_number': 97, 'insertion_code': ' ', 'chain_id': ' ', 'match_info': '{"28": ["NH2", 5], "97": ["paam", 10], "98": ["paam", 10]}', 'substructure_query_id': 10}, 290: {'residue_name': 'paam', 'residue_number': 99, 'insertion_code': ' ', 'chain_id': ' ', 'match_info': '{"99": ["paam", 2], "102": ["paam", 2]}', 'substructure_query_id': 2}, 291: {'residue_name': 'paam', 'residue_number': 99, 'insertion_code': ' ', 'chain_id': ' ', 'match_info': '{"99": ["paam", 1], "100": ["paam", 1]}', 'substructure_query_id': 1}, 292: {'residue_name': 'paam', 'residue_number': 99, 'insertion_code': ' ', 'chain_id': ' ', 'match_info': '{"99": ["paam", 3], "102": ["paam", 3]}', 'substructure_query_id': 3}, 293: {'residue_name': 'paam', 'residue_number': 99, 'insertion_code': ' ', 'chain_id': ' ', 'match_info': '{"99": ["paam", 4], "102": ["paam", 4]}', 'substructure_query_id': 4}, 294: {'residue_name': 'paam', 'residue_number': 99, 'insertion_code': ' ', 'chain_id': ' ', 'match_info': '{"29": ["NH2", 1], "99": ["paam", 6], "100": ["paam", 6]}', 'substructure_query_id': 6}, 295: {'residue_name': 'paam', 'residue_number': 99, 'insertion_code': ' ', 'chain_id': ' ', 'match_info': '{"29": ["NH2", 2], "99": ["paam", 7], "100": ["paam", 7]}', 'substructure_query_id': 7}, 296: {'residue_name': 'paam', 'residue_number': 99, 'insertion_code': ' ', 'chain_id': ' ', 'match_info': '{"29": ["NH2", 3], "99": ["paam", 8], "100": ["paam", 8]}', 'substructure_query_id': 8}, 297: {'residue_name': 'paam', 'residue_number': 99, 'insertion_code': ' ', 'chain_id': ' ', 'match_info': '{"99": ["paam", 11], "100": ["paam", 11]}', 'substructure_query_id': 11}, 298: {'residue_name': 'paam', 'residue_number': 99, 'insertion_code': ' ', 'chain_id': ' ', 'match_info': '{"29": ["NH2", 4], "99": ["paam", 9], "100": ["paam", 9]}', 'substructure_query_id': 9}, 299: {'residue_name': 'paam', 'residue_number': 99, 'insertion_code': ' ', 'chain_id': ' ', 'match_info': '{"29": ["NH2", 5], "99": ["paam", 10], "100": ["paam", 10]}', 'substructure_query_id': 10}, 300: {'residue_name': 'paam', 'residue_number': 101, 'insertion_code': ' ', 'chain_id': ' ', 'match_info': '{"101": ["paam", 2], "104": ["paam", 2]}', 'substructure_query_id': 2}, 301: {'residue_name': 'paam', 'residue_number': 101, 'insertion_code': ' ', 'chain_id': ' ', 'match_info': '{"101": ["paam", 1], "102": ["paam", 1]}', 'substructure_query_id': 1}, 302: {'residue_name': 'paam', 'residue_number': 101, 'insertion_code': ' ', 'chain_id': ' ', 'match_info': '{"101": ["paam", 3], "104": ["paam", 3]}', 'substructure_query_id': 3}, 303: {'residue_name': 'paam', 'residue_number': 101, 'insertion_code': ' ', 'chain_id': ' ', 'match_info': '{"101": ["paam", 4], "104": ["paam", 4]}', 'substructure_query_id': 4}, 304: {'residue_name': 'paam', 'residue_number': 101, 'insertion_code': ' ', 'chain_id': ' ', 'match_info': '{"30": ["NH2", 1], "101": ["paam", 6], "102": ["paam", 6]}', 'substructure_query_id': 6}, 305: {'residue_name': 'paam', 'residue_number': 101, 'insertion_code': ' ', 'chain_id': ' ', 'match_info': '{"30": ["NH2", 2], "101": ["paam", 7], "102": ["paam", 7]}', 'substructure_query_id': 7}, 306: {'residue_name': 'paam', 'residue_number': 101, 'insertion_code': ' ', 'chain_id': ' ', 'match_info': '{"30": ["NH2", 3], "101": ["paam", 8], "102": ["paam", 8]}', 'substructure_query_id': 8}, 307: {'residue_name': 'paam', 'residue_number': 101, 'insertion_code': ' ', 'chain_id': ' ', 'match_info': '{"101": ["paam", 11], "102": ["paam", 11]}', 'substructure_query_id': 11}, 308: {'residue_name': 'paam', 'residue_number': 101, 'insertion_code': ' ', 'chain_id': ' ', 'match_info': '{"30": ["NH2", 4], "101": ["paam", 9], "102": ["paam", 9]}', 'substructure_query_id': 9}, 309: {'residue_name': 'paam', 'residue_number': 101, 'insertion_code': ' ', 'chain_id': ' ', 'match_info': '{"30": ["NH2", 5], "101": ["paam", 10], "102": ["paam", 10]}', 'substructure_query_id': 10}, 310: {'residue_name': 'paam', 'residue_number': 103, 'insertion_code': ' ', 'chain_id': ' ', 'match_info': '{"103": ["paam", 2], "106": ["paam", 2]}', 'substructure_query_id': 2}, 311: {'residue_name': 'paam', 'residue_number': 103, 'insertion_code': ' ', 'chain_id': ' ', 'match_info': '{"103": ["paam", 1], "104": ["paam", 1]}', 'substructure_query_id': 1}, 312: {'residue_name': 'paam', 'residue_number': 103, 'insertion_code': ' ', 'chain_id': ' ', 'match_info': '{"103": ["paam", 3], "106": ["paam", 3]}', 'substructure_query_id': 3}, 313: {'residue_name': 'paam', 'residue_number': 103, 'insertion_code': ' ', 'chain_id': ' ', 'match_info': '{"103": ["paam", 4], "106": ["paam", 4]}', 'substructure_query_id': 4}, 314: {'residue_name': 'paam', 'residue_number': 103, 'insertion_code': ' ', 'chain_id': ' ', 'match_info': '{"31": ["NH2", 1], "103": ["paam", 6], "104": ["paam", 6]}', 'substructure_query_id': 6}, 315: {'residue_name': 'paam', 'residue_number': 103, 'insertion_code': ' ', 'chain_id': ' ', 'match_info': '{"31": ["NH2", 2], "103": ["paam", 7], "104": ["paam", 7]}', 'substructure_query_id': 7}, 316: {'residue_name': 'paam', 'residue_number': 103, 'insertion_code': ' ', 'chain_id': ' ', 'match_info': '{"31": ["NH2", 3], "103": ["paam", 8], "104": ["paam", 8]}', 'substructure_query_id': 8}, 317: {'residue_name': 'paam', 'residue_number': 103, 'insertion_code': ' ', 'chain_id': ' ', 'match_info': '{"103": ["paam", 11], "104": ["paam", 11]}', 'substructure_query_id': 11}, 318: {'residue_name': 'paam', 'residue_number': 103, 'insertion_code': ' ', 'chain_id': ' ', 'match_info': '{"31": ["NH2", 4], "103": ["paam", 9], "104": ["paam", 9]}', 'substructure_query_id': 9}, 319: {'residue_name': 'paam', 'residue_number': 103, 'insertion_code': ' ', 'chain_id': ' ', 'match_info': '{"31": ["NH2", 5], "103": ["paam", 10], "104": ["paam", 10]}', 'substructure_query_id': 10}, 320: {'residue_name': 'paam', 'residue_number': 105, 'insertion_code': ' ', 'chain_id': ' ', 'match_info': '{"105": ["paam", 2], "108": ["paam", 2]}', 'substructure_query_id': 2}, 321: {'residue_name': 'paam', 'residue_number': 105, 'insertion_code': ' ', 'chain_id': ' ', 'match_info': '{"105": ["paam", 1], "106": ["paam", 1]}', 'substructure_query_id': 1}, 322: {'residue_name': 'paam', 'residue_number': 105, 'insertion_code': ' ', 'chain_id': ' ', 'match_info': '{"105": ["paam", 3], "108": ["paam", 3]}', 'substructure_query_id': 3}, 323: {'residue_name': 'paam', 'residue_number': 105, 'insertion_code': ' ', 'chain_id': ' ', 'match_info': '{"105": ["paam", 4], "108": ["paam", 4]}', 'substructure_query_id': 4}, 324: {'residue_name': 'paam', 'residue_number': 105, 'insertion_code': ' ', 'chain_id': ' ', 'match_info': '{"32": ["NH2", 1], "105": ["paam", 6], "106": ["paam", 6]}', 'substructure_query_id': 6}, 325: {'residue_name': 'paam', 'residue_number': 105, 'insertion_code': ' ', 'chain_id': ' ', 'match_info': '{"32": ["NH2", 2], "105": ["paam", 7], "106": ["paam", 7]}', 'substructure_query_id': 7}, 326: {'residue_name': 'paam', 'residue_number': 105, 'insertion_code': ' ', 'chain_id': ' ', 'match_info': '{"32": ["NH2", 3], "105": ["paam", 8], "106": ["paam", 8]}', 'substructure_query_id': 8}, 327: {'residue_name': 'paam', 'residue_number': 105, 'insertion_code': ' ', 'chain_id': ' ', 'match_info': '{"105": ["paam", 11], "106": ["paam", 11]}', 'substructure_query_id': 11}, 328: {'residue_name': 'paam', 'residue_number': 105, 'insertion_code': ' ', 'chain_id': ' ', 'match_info': '{"32": ["NH2", 4], "105": ["paam", 9], "106": ["paam", 9]}', 'substructure_query_id': 9}, 329: {'residue_name': 'paam', 'residue_number': 105, 'insertion_code': ' ', 'chain_id': ' ', 'match_info': '{"32": ["NH2", 5], "105": ["paam", 10], "106": ["paam", 10]}', 'substructure_query_id': 10}, 330: {'residue_name': 'paam', 'residue_number': 107, 'insertion_code': ' ', 'chain_id': ' ', 'match_info': '{"107": ["paam", 2], "110": ["paam", 2]}', 'substructure_query_id': 2}, 331: {'residue_name': 'paam', 'residue_number': 107, 'insertion_code': ' ', 'chain_id': ' ', 'match_info': '{"107": ["paam", 1], "108": ["paam", 1]}', 'substructure_query_id': 1}, 332: {'residue_name': 'paam', 'residue_number': 107, 'insertion_code': ' ', 'chain_id': ' ', 'match_info': '{"107": ["paam", 3], "110": ["paam", 3]}', 'substructure_query_id': 3}, 333: {'residue_name': 'paam', 'residue_number': 107, 'insertion_code': ' ', 'chain_id': ' ', 'match_info': '{"107": ["paam", 4], "110": ["paam", 4]}', 'substructure_query_id': 4}, 334: {'residue_name': 'paam', 'residue_number': 107, 'insertion_code': ' ', 'chain_id': ' ', 'match_info': '{"33": ["NH2", 1], "107": ["paam", 6], "108": ["paam", 6]}', 'substructure_query_id': 6}, 335: {'residue_name': 'paam', 'residue_number': 107, 'insertion_code': ' ', 'chain_id': ' ', 'match_info': '{"33": ["NH2", 2], "107": ["paam", 7], "108": ["paam", 7]}', 'substructure_query_id': 7}, 336: {'residue_name': 'paam', 'residue_number': 107, 'insertion_code': ' ', 'chain_id': ' ', 'match_info': '{"33": ["NH2", 3], "107": ["paam", 8], "108": ["paam", 8]}', 'substructure_query_id': 8}, 337: {'residue_name': 'paam', 'residue_number': 107, 'insertion_code': ' ', 'chain_id': ' ', 'match_info': '{"107": ["paam", 11], "108": ["paam", 11]}', 'substructure_query_id': 11}, 338: {'residue_name': 'paam', 'residue_number': 107, 'insertion_code': ' ', 'chain_id': ' ', 'match_info': '{"33": ["NH2", 4], "107": ["paam", 9], "108": ["paam", 9]}', 'substructure_query_id': 9}, 339: {'residue_name': 'paam', 'residue_number': 107, 'insertion_code': ' ', 'chain_id': ' ', 'match_info': '{"33": ["NH2", 5], "107": ["paam", 10], "108": ["paam", 10]}', 'substructure_query_id': 10}, 340: {'residue_name': 'paam', 'residue_number': 109, 'insertion_code': ' ', 'chain_id': ' ', 'match_info': '{"109": ["paam", 2], "112": ["paam", 2]}', 'substructure_query_id': 2}, 341: {'residue_name': 'paam', 'residue_number': 109, 'insertion_code': ' ', 'chain_id': ' ', 'match_info': '{"109": ["paam", 1], "110": ["paam", 1]}', 'substructure_query_id': 1}, 342: {'residue_name': 'paam', 'residue_number': 109, 'insertion_code': ' ', 'chain_id': ' ', 'match_info': '{"109": ["paam", 3], "112": ["paam", 3]}', 'substructure_query_id': 3}, 343: {'residue_name': 'paam', 'residue_number': 109, 'insertion_code': ' ', 'chain_id': ' ', 'match_info': '{"109": ["paam", 4], "112": ["paam", 4]}', 'substructure_query_id': 4}, 344: {'residue_name': 'paam', 'residue_number': 109, 'insertion_code': ' ', 'chain_id': ' ', 'match_info': '{"34": ["NH2", 1], "109": ["paam", 6], "110": ["paam", 6]}', 'substructure_query_id': 6}, 345: {'residue_name': 'paam', 'residue_number': 109, 'insertion_code': ' ', 'chain_id': ' ', 'match_info': '{"34": ["NH2", 2], "109": ["paam", 7], "110": ["paam", 7]}', 'substructure_query_id': 7}, 346: {'residue_name': 'paam', 'residue_number': 109, 'insertion_code': ' ', 'chain_id': ' ', 'match_info': '{"34": ["NH2", 3], "109": ["paam", 8], "110": ["paam", 8]}', 'substructure_query_id': 8}, 347: {'residue_name': 'paam', 'residue_number': 109, 'insertion_code': ' ', 'chain_id': ' ', 'match_info': '{"109": ["paam", 11], "110": ["paam", 11]}', 'substructure_query_id': 11}, 348: {'residue_name': 'paam', 'residue_number': 109, 'insertion_code': ' ', 'chain_id': ' ', 'match_info': '{"34": ["NH2", 4], "109": ["paam", 9], "110": ["paam", 9]}', 'substructure_query_id': 9}, 349: {'residue_name': 'paam', 'residue_number': 109, 'insertion_code': ' ', 'chain_id': ' ', 'match_info': '{"34": ["NH2", 5], "109": ["paam", 10], "110": ["paam", 10]}', 'substructure_query_id': 10}, 350: {'residue_name': 'paam', 'residue_number': 111, 'insertion_code': ' ', 'chain_id': ' ', 'match_info': '{"111": ["paam", 2], "114": ["paam", 2]}', 'substructure_query_id': 2}, 351: {'residue_name': 'paam', 'residue_number': 111, 'insertion_code': ' ', 'chain_id': ' ', 'match_info': '{"111": ["paam", 1], "112": ["paam", 1]}', 'substructure_query_id': 1}, 352: {'residue_name': 'paam', 'residue_number': 111, 'insertion_code': ' ', 'chain_id': ' ', 'match_info': '{"111": ["paam", 3], "114": ["paam", 3]}', 'substructure_query_id': 3}, 353: {'residue_name': 'paam', 'residue_number': 111, 'insertion_code': ' ', 'chain_id': ' ', 'match_info': '{"111": ["paam", 4], "114": ["paam", 4]}', 'substructure_query_id': 4}, 354: {'residue_name': 'paam', 'residue_number': 111, 'insertion_code': ' ', 'chain_id': ' ', 'match_info': '{"35": ["NH2", 1], "111": ["paam", 6], "112": ["paam", 6]}', 'substructure_query_id': 6}, 355: {'residue_name': 'paam', 'residue_number': 111, 'insertion_code': ' ', 'chain_id': ' ', 'match_info': '{"35": ["NH2", 2], "111": ["paam", 7], "112": ["paam", 7]}', 'substructure_query_id': 7}, 356: {'residue_name': 'paam', 'residue_number': 111, 'insertion_code': ' ', 'chain_id': ' ', 'match_info': '{"35": ["NH2", 3], "111": ["paam", 8], "112": ["paam", 8]}', 'substructure_query_id': 8}, 357: {'residue_name': 'paam', 'residue_number': 111, 'insertion_code': ' ', 'chain_id': ' ', 'match_info': '{"111": ["paam", 11], "112": ["paam", 11]}', 'substructure_query_id': 11}, 358: {'residue_name': 'paam', 'residue_number': 111, 'insertion_code': ' ', 'chain_id': ' ', 'match_info': '{"35": ["NH2", 4], "111": ["paam", 9], "112": ["paam", 9]}', 'substructure_query_id': 9}, 359: {'residue_name': 'paam', 'residue_number': 111, 'insertion_code': ' ', 'chain_id': ' ', 'match_info': '{"35": ["NH2", 5], "111": ["paam", 10], "112": ["paam", 10]}', 'substructure_query_id': 10}, 360: {'residue_name': 'paam', 'residue_number': 113, 'insertion_code': ' ', 'chain_id': ' ', 'match_info': '{"113": ["paam", 2], "116": ["paam", 2]}', 'substructure_query_id': 2}, 361: {'residue_name': 'paam', 'residue_number': 113, 'insertion_code': ' ', 'chain_id': ' ', 'match_info': '{"113": ["paam", 1], "114": ["paam", 1]}', 'substructure_query_id': 1}, 362: {'residue_name': 'paam', 'residue_number': 113, 'insertion_code': ' ', 'chain_id': ' ', 'match_info': '{"113": ["paam", 3], "116": ["paam", 3]}', 'substructure_query_id': 3}, 363: {'residue_name': 'paam', 'residue_number': 113, 'insertion_code': ' ', 'chain_id': ' ', 'match_info': '{"113": ["paam", 4], "116": ["paam", 4]}', 'substructure_query_id': 4}, 364: {'residue_name': 'paam', 'residue_number': 113, 'insertion_code': ' ', 'chain_id': ' ', 'match_info': '{"36": ["NH2", 1], "113": ["paam", 6], "114": ["paam", 6]}', 'substructure_query_id': 6}, 365: {'residue_name': 'paam', 'residue_number': 113, 'insertion_code': ' ', 'chain_id': ' ', 'match_info': '{"36": ["NH2", 2], "113": ["paam", 7], "114": ["paam", 7]}', 'substructure_query_id': 7}, 366: {'residue_name': 'paam', 'residue_number': 113, 'insertion_code': ' ', 'chain_id': ' ', 'match_info': '{"36": ["NH2", 3], "113": ["paam", 8], "114": ["paam", 8]}', 'substructure_query_id': 8}, 367: {'residue_name': 'paam', 'residue_number': 113, 'insertion_code': ' ', 'chain_id': ' ', 'match_info': '{"113": ["paam", 11], "114": ["paam", 11]}', 'substructure_query_id': 11}, 368: {'residue_name': 'paam', 'residue_number': 113, 'insertion_code': ' ', 'chain_id': ' ', 'match_info': '{"36": ["NH2", 4], "113": ["paam", 9], "114": ["paam", 9]}', 'substructure_query_id': 9}, 369: {'residue_name': 'paam', 'residue_number': 113, 'insertion_code': ' ', 'chain_id': ' ', 'match_info': '{"36": ["NH2", 5], "113": ["paam", 10], "114": ["paam", 10]}', 'substructure_query_id': 10}, 370: {'residue_name': 'paam', 'residue_number': 115, 'insertion_code': ' ', 'chain_id': ' ', 'match_info': '{"115": ["paam", 2], "118": ["paam", 2]}', 'substructure_query_id': 2}, 371: {'residue_name': 'paam', 'residue_number': 115, 'insertion_code': ' ', 'chain_id': ' ', 'match_info': '{"115": ["paam", 1], "116": ["paam", 1]}', 'substructure_query_id': 1}, 372: {'residue_name': 'paam', 'residue_number': 115, 'insertion_code': ' ', 'chain_id': ' ', 'match_info': '{"115": ["paam", 3], "118": ["paam", 3]}', 'substructure_query_id': 3}, 373: {'residue_name': 'paam', 'residue_number': 115, 'insertion_code': ' ', 'chain_id': ' ', 'match_info': '{"115": ["paam", 4], "118": ["paam", 4]}', 'substructure_query_id': 4}, 374: {'residue_name': 'paam', 'residue_number': 115, 'insertion_code': ' ', 'chain_id': ' ', 'match_info': '{"37": ["NH2", 1], "115": ["paam", 6], "116": ["paam", 6]}', 'substructure_query_id': 6}, 375: {'residue_name': 'paam', 'residue_number': 115, 'insertion_code': ' ', 'chain_id': ' ', 'match_info': '{"37": ["NH2", 2], "115": ["paam", 7], "116": ["paam", 7]}', 'substructure_query_id': 7}, 376: {'residue_name': 'paam', 'residue_number': 115, 'insertion_code': ' ', 'chain_id': ' ', 'match_info': '{"37": ["NH2", 3], "115": ["paam", 8], "116": ["paam", 8]}', 'substructure_query_id': 8}, 377: {'residue_name': 'paam', 'residue_number': 115, 'insertion_code': ' ', 'chain_id': ' ', 'match_info': '{"115": ["paam", 11], "116": ["paam", 11]}', 'substructure_query_id': 11}, 378: {'residue_name': 'paam', 'residue_number': 115, 'insertion_code': ' ', 'chain_id': ' ', 'match_info': '{"37": ["NH2", 4], "115": ["paam", 9], "116": ["paam", 9]}', 'substructure_query_id': 9}, 379: {'residue_name': 'paam', 'residue_number': 115, 'insertion_code': ' ', 'chain_id': ' ', 'match_info': '{"37": ["NH2", 5], "115": ["paam", 10], "116": ["paam", 10]}', 'substructure_query_id': 10}, 380: {'residue_name': 'paam', 'residue_number': 117, 'insertion_code': ' ', 'chain_id': ' ', 'match_info': '{"117": ["paam", 2], "120": ["paam", 2]}', 'substructure_query_id': 2}, 381: {'residue_name': 'paam', 'residue_number': 117, 'insertion_code': ' ', 'chain_id': ' ', 'match_info': '{"117": ["paam", 1], "118": ["paam", 1]}', 'substructure_query_id': 1}, 382: {'residue_name': 'paam', 'residue_number': 117, 'insertion_code': ' ', 'chain_id': ' ', 'match_info': '{"117": ["paam", 3], "120": ["paam", 3]}', 'substructure_query_id': 3}, 383: {'residue_name': 'paam', 'residue_number': 117, 'insertion_code': ' ', 'chain_id': ' ', 'match_info': '{"117": ["paam", 4], "120": ["paam", 4]}', 'substructure_query_id': 4}, 384: {'residue_name': 'paam', 'residue_number': 117, 'insertion_code': ' ', 'chain_id': ' ', 'match_info': '{"38": ["NH2", 1], "117": ["paam", 6], "118": ["paam", 6]}', 'substructure_query_id': 6}, 385: {'residue_name': 'paam', 'residue_number': 117, 'insertion_code': ' ', 'chain_id': ' ', 'match_info': '{"38": ["NH2", 2], "117": ["paam", 7], "118": ["paam", 7]}', 'substructure_query_id': 7}, 386: {'residue_name': 'paam', 'residue_number': 117, 'insertion_code': ' ', 'chain_id': ' ', 'match_info': '{"38": ["NH2", 3], "117": ["paam", 8], "118": ["paam", 8]}', 'substructure_query_id': 8}, 387: {'residue_name': 'paam', 'residue_number': 117, 'insertion_code': ' ', 'chain_id': ' ', 'match_info': '{"117": ["paam", 11], "118": ["paam", 11]}', 'substructure_query_id': 11}, 388: {'residue_name': 'paam', 'residue_number': 117, 'insertion_code': ' ', 'chain_id': ' ', 'match_info': '{"38": ["NH2", 4], "117": ["paam", 9], "118": ["paam", 9]}', 'substructure_query_id': 9}, 389: {'residue_name': 'paam', 'residue_number': 117, 'insertion_code': ' ', 'chain_id': ' ', 'match_info': '{"38": ["NH2", 5], "117": ["paam", 10], "118": ["paam", 10]}', 'substructure_query_id': 10}, 390: {'residue_name': 'paam', 'residue_number': 119, 'insertion_code': ' ', 'chain_id': ' ', 'match_info': '{"119": ["paam", 2], "122": ["paam", 2]}', 'substructure_query_id': 2}, 391: {'residue_name': 'paam', 'residue_number': 119, 'insertion_code': ' ', 'chain_id': ' ', 'match_info': '{"119": ["paam", 1], "120": ["paam", 1]}', 'substructure_query_id': 1}, 392: {'residue_name': 'paam', 'residue_number': 119, 'insertion_code': ' ', 'chain_id': ' ', 'match_info': '{"119": ["paam", 3], "122": ["paam", 3]}', 'substructure_query_id': 3}, 393: {'residue_name': 'paam', 'residue_number': 119, 'insertion_code': ' ', 'chain_id': ' ', 'match_info': '{"119": ["paam", 4], "122": ["paam", 4]}', 'substructure_query_id': 4}, 394: {'residue_name': 'paam', 'residue_number': 119, 'insertion_code': ' ', 'chain_id': ' ', 'match_info': '{"39": ["NH2", 1], "119": ["paam", 6], "120": ["paam", 6]}', 'substructure_query_id': 6}, 395: {'residue_name': 'paam', 'residue_number': 119, 'insertion_code': ' ', 'chain_id': ' ', 'match_info': '{"39": ["NH2", 2], "119": ["paam", 7], "120": ["paam", 7]}', 'substructure_query_id': 7}, 396: {'residue_name': 'paam', 'residue_number': 119, 'insertion_code': ' ', 'chain_id': ' ', 'match_info': '{"39": ["NH2", 3], "119": ["paam", 8], "120": ["paam", 8]}', 'substructure_query_id': 8}, 397: {'residue_name': 'paam', 'residue_number': 119, 'insertion_code': ' ', 'chain_id': ' ', 'match_info': '{"119": ["paam", 11], "120": ["paam", 11]}', 'substructure_query_id': 11}, 398: {'residue_name': 'paam', 'residue_number': 119, 'insertion_code': ' ', 'chain_id': ' ', 'match_info': '{"39": ["NH2", 4], "119": ["paam", 9], "120": ["paam", 9]}', 'substructure_query_id': 9}, 399: {'residue_name': 'paam', 'residue_number': 119, 'insertion_code': ' ', 'chain_id': ' ', 'match_info': '{"39": ["NH2", 5], "119": ["paam", 10], "120": ["paam", 10]}', 'substructure_query_id': 10}, 400: {'residue_name': 'paam', 'residue_number': 121, 'insertion_code': ' ', 'chain_id': ' ', 'match_info': '{"121": ["paam", 2], "124": ["paam", 2]}', 'substructure_query_id': 2}, 401: {'residue_name': 'paam', 'residue_number': 121, 'insertion_code': ' ', 'chain_id': ' ', 'match_info': '{"121": ["paam", 1], "122": ["paam", 1]}', 'substructure_query_id': 1}, 402: {'residue_name': 'paam', 'residue_number': 121, 'insertion_code': ' ', 'chain_id': ' ', 'match_info': '{"121": ["paam", 3], "124": ["paam", 3]}', 'substructure_query_id': 3}, 403: {'residue_name': 'paam', 'residue_number': 121, 'insertion_code': ' ', 'chain_id': ' ', 'match_info': '{"121": ["paam", 4], "124": ["paam", 4]}', 'substructure_query_id': 4}, 404: {'residue_name': 'paam', 'residue_number': 121, 'insertion_code': ' ', 'chain_id': ' ', 'match_info': '{"40": ["NH2", 1], "121": ["paam", 6], "122": ["paam", 6]}', 'substructure_query_id': 6}, 405: {'residue_name': 'paam', 'residue_number': 121, 'insertion_code': ' ', 'chain_id': ' ', 'match_info': '{"40": ["NH2", 2], "121": ["paam", 7], "122": ["paam", 7]}', 'substructure_query_id': 7}, 406: {'residue_name': 'paam', 'residue_number': 121, 'insertion_code': ' ', 'chain_id': ' ', 'match_info': '{"40": ["NH2", 3], "121": ["paam", 8], "122": ["paam", 8]}', 'substructure_query_id': 8}, 407: {'residue_name': 'paam', 'residue_number': 121, 'insertion_code': ' ', 'chain_id': ' ', 'match_info': '{"121": ["paam", 11], "122": ["paam", 11]}', 'substructure_query_id': 11}, 408: {'residue_name': 'paam', 'residue_number': 121, 'insertion_code': ' ', 'chain_id': ' ', 'match_info': '{"40": ["NH2", 4], "121": ["paam", 9], "122": ["paam", 9]}', 'substructure_query_id': 9}, 409: {'residue_name': 'paam', 'residue_number': 121, 'insertion_code': ' ', 'chain_id': ' ', 'match_info': '{"40": ["NH2", 5], "121": ["paam", 10], "122": ["paam", 10]}', 'substructure_query_id': 10}, 410: {'residue_name': 'paam_TERM2', 'residue_number': 125, 'insertion_code': ' ', 'chain_id': ' ', 'match_info': '{"123": ["paam", 2], "125": ["paam_TERM2", 2]}', 'substructure_query_id': 2}, 411: {'residue_name': 'paam_TERM2', 'residue_number': 125, 'insertion_code': ' ', 'chain_id': ' ', 'match_info': '{"123": ["paam", 1], "124": ["paam", 1], "125": ["paam_TERM2", 1]}', 'substructure_query_id': 1}, 412: {'residue_name': 'paam_TERM2', 'residue_number': 125, 'insertion_code': ' ', 'chain_id': ' ', 'match_info': '{"123": ["paam", 3], "125": ["paam_TERM2", 3]}', 'substructure_query_id': 3}, 413: {'residue_name': 'paam_TERM2', 'residue_number': 125, 'insertion_code': ' ', 'chain_id': ' ', 'match_info': '{"123": ["paam", 4], "125": ["paam_TERM2", 4]}', 'substructure_query_id': 4}, 414: {'residue_name': 'paam_TERM2', 'residue_number': 125, 'insertion_code': ' ', 'chain_id': ' ', 'match_info': '{"41": ["NH2", 1], "123": ["paam", 6], "124": ["paam", 6], "125": ["paam_TERM2", 6]}', 'substructure_query_id': 6}, 415: {'residue_name': 'paam_TERM2', 'residue_number': 125, 'insertion_code': ' ', 'chain_id': ' ', 'match_info': '{"41": ["NH2", 2], "123": ["paam", 7], "124": ["paam", 7], "125": ["paam_TERM2", 7]}', 'substructure_query_id': 7}, 416: {'residue_name': 'paam_TERM2', 'residue_number': 125, 'insertion_code': ' ', 'chain_id': ' ', 'match_info': '{"41": ["NH2", 3], "123": ["paam", 8], "124": ["paam", 8], "125": ["paam_TERM2", 8]}', 'substructure_query_id': 8}, 417: {'residue_name': 'paam_TERM2', 'residue_number': 125, 'insertion_code': ' ', 'chain_id': ' ', 'match_info': '{"123": ["paam", 11], "124": ["paam", 11], "125": ["paam_TERM2", 11]}', 'substructure_query_id': 11}, 418: {'residue_name': 'paam_TERM2', 'residue_number': 125, 'insertion_code': ' ', 'chain_id': ' ', 'match_info': '{"41": ["NH2", 4], "123": ["paam", 9], "124": ["paam", 9], "125": ["paam_TERM2", 9]}', 'substructure_query_id': 9}, 419: {'residue_name': 'paam_TERM2', 'residue_number': 125, 'insertion_code': ' ', 'chain_id': ' ', 'match_info': '{"41": ["NH2", 5], "123": ["paam", 10], "124": ["paam", 10], "125": ["paam_TERM2", 10]}', 'substructure_query_id': 10}, 420: {'residue_name': 'paam_TERM3', 'residue_number': 126, 'insertion_code': ' ', 'chain_id': ' ', 'match_info': '{"43": ["paam", 11], "126": ["paam_TERM3", 11]}', 'substructure_query_id': 11}, 421: {'residue_name': 'paam_TERM2', 'residue_number': 125, 'insertion_code': ' ', 'chain_id': ' ', 'match_info': '{"125": ["paam_TERM2", 5]}', 'substructure_query_id': 5}}

>  <atom.dprop.PartialCharge>  (1) 
-0.066461702243764825 -0.15811335052676959 0.076685259683649115 0.076685259683649115 0.66470910106472214 -0.60733674968906204 -0.68860148395725052 0.062339829845945417 0.31024006996921738
0.31024006996921738 -0.055587624566038073 -0.13400510455795092 0.068375180109064154 0.068375180109064154 0.66262460742763718 -0.59478931631274978 -0.69190393890567581 0.057726773067037641
0.30946792159847458 0.30946792159847458 -0.053946481452663363 -0.13636187221236987 0.067790644808332495 0.067790644808332495 0.66288424526027878 -0.59329854454227249 -0.69327383245654861
0.060696324898521482 0.3093516329365178 0.3093516329365178 -0.053912421123464525 -0.13737209643550677 0.067790644808332495 0.067790644808332495 0.66285378728679856 -0.59329854454227249
-0.69327383245654861 0.060593719227830946 0.3093516329365178 0.3093516329365178 -0.053912421123464525 -0.13737209643550677 0.067790644808332495 0.067790644808332495 0.66285378728679856
-0.59329854454227249 -0.69327383245654861 0.060593719227830946 0.3093516329365178 0.3093516329365178 -0.053912421123464525 -0.13737209643550677 0.067790644808332495 0.067790644808332495
0.66285378728679856 -0.59329854454227249 -0.69327383245654861 0.060593719227830946 0.3093516329365178 0.3093516329365178 -0.053912421123464525 -0.13737209643550677 0.067790644808332495
0.067790644808332495 0.66285378728679856 -0.59329854454227249 -0.69327383245654861 0.060593719227830946 0.3093516329365178 0.3093516329365178 -0.053912421123464525 -0.13737209643550677
0.067790644808332495 0.067790644808332495 0.66285378728679856 -0.59329854454227249 -0.69327383245654861 0.060593719227830946 0.3093516329365178 0.3093516329365178 -0.053912421123464525
-0.13737209643550677 0.067790644808332495 0.067790644808332495 0.66285378728679856 -0.59329854454227249 -0.69327383245654861 0.060593719227830946 0.3093516329365178 0.3093516329365178
-0.053912421123464525 -0.13737209643550677 0.067790644808332495 0.067790644808332495 0.66285378728679856 -0.59329854454227249 -0.69327383245654861 0.060593719227830946 0.3093516329365178
0.3093516329365178 -0.053912421123464525 -0.13737209643550677 0.067790644808332495 0.067790644808332495 0.66285378728679856 -0.59329854454227249 -0.69327383245654861 0.060593719227830946
0.3093516329365178 0.3093516329365178 -0.053912421123464525 -0.13737209643550677 0.067790644808332495 0.067790644808332495 0.66285378728679856 -0.59329854454227249 -0.69327383245654861
0.060593719227830946 0.3093516329365178 0.3093516329365178 -0.053912421123464525 -0.13737209643550677 0.067790644808332495 0.067790644808332495 0.66285378728679856 -0.59329854454227249
-0.69327383245654861 0.060593719227830946 0.3093516329365178 0.3093516329365178 -0.053912421123464525 -0.13737209643550677 0.067790644808332495 0.067790644808332495 0.66285378728679856
-0.59329854454227249 -0.69327383245654861 0.060593719227830946 0.3093516329365178 0.3093516329365178 -0.053912421123464525 -0.13737209643550677 0.067790644808332495 0.067790644808332495
0.66285378728679856 -0.59329854454227249 -0.69327383245654861 0.060593719227830946 0.3093516329365178 0.3093516329365178 -0.053912421123464525 -0.13737209643550677 0.067790644808332495
0.067790644808332495 0.66285378728679856 -0.59329854454227249 -0.69327383245654861 0.060593719227830946 0.3093516329365178 0.3093516329365178 -0.053912421123464525 -0.13737209643550677
0.067790644808332495 0.067790644808332495 0.66285378728679856 -0.59329854454227249 -0.69327383245654861 0.060593719227830946 0.3093516329365178 0.3093516329365178 -0.053912421123464525
-0.13737209643550677 0.067790644808332495 0.067790644808332495 0.66285378728679856 -0.59329854454227249 -0.69327383245654861 0.060593719227830946 0.3093516329365178 0.3093516329365178
-0.053912421123464525 -0.13737209643550677 0.067790644808332495 0.067790644808332495 0.66285378728679856 -0.59329854454227249 -0.69327383245654861 0.060593719227830946 0.3093516329365178
0.3093516329365178 -0.053912421123464525 -0.13737209643550677 0.067790644808332495 0.067790644808332495 0.66285378728679856 -0.59329854454227249 -0.69327383245654861 0.060593719227830946
0.3093516329365178 0.3093516329365178 -0.053912421123464525 -0.13737209643550677 0.067790644808332495 0.067790644808332495 0.66285378728679856 -0.59329854454227249 -0.69327383245654861
0.060593719227830946 0.3093516329365178 0.3093516329365178 -0.053912421123464525 -0.13737209643550677 0.067790644808332495 0.067790644808332495 0.66285378728679856 -0.59329854454227249
-0.69327383245654861 0.060593719227830946 0.3093516329365178 0.3093516329365178 -0.053912421123464525 -0.13737209643550677 0.067790644808332495 0.067790644808332495 0.66285378728679856
-0.59329854454227249 -0.69327383245654861 0.060593719227830946 0.3093516329365178 0.3093516329365178 -0.053912421123464525 -0.13737209643550677 0.067790644808332495 0.067790644808332495
0.66285378728679856 -0.59329854454227249 -0.69327383245654861 0.060593719227830946 0.3093516329365178 0.3093516329365178 -0.053912421123464525 -0.13737209643550677 0.067790644808332495
0.067790644808332495 0.66285378728679856 -0.59329854454227249 -0.69327383245654861 0.060593719227830946 0.3093516329365178 0.3093516329365178 -0.053912421123464525 -0.13737209643550677
0.067790644808332495 0.067790644808332495 0.66285378728679856 -0.59329854454227249 -0.69327383245654861 0.060593719227830946 0.3093516329365178 0.3093516329365178 -0.053912421123464525
-0.13737209643550677 0.067790644808332495 0.067790644808332495 0.66285378728679856 -0.59329854454227249 -0.69327383245654861 0.060593719227830946 0.3093516329365178 0.3093516329365178
-0.053912421123464525 -0.13737209643550677 0.067790644808332495 0.067790644808332495 0.66285378728679856 -0.59329854454227249 -0.69327383245654861 0.060593719227830946 0.3093516329365178
0.3093516329365178 -0.053912421123464525 -0.13737209643550677 0.067790644808332495 0.067790644808332495 0.66285378728679856 -0.59329854454227249 -0.69327383245654861 0.060593719227830946
0.3093516329365178 0.3093516329365178 -0.053912421123464525 -0.13737209643550677 0.067790644808332495 0.067790644808332495 0.66285378728679856 -0.59329854454227249 -0.69327383245654861
0.060593719227830946 0.3093516329365178 0.3093516329365178 -0.053912421123464525 -0.13737209643550677 0.067790644808332495 0.067790644808332495 0.66285378728679856 -0.59329854454227249
-0.69327383245654861 0.060593719227830946 0.3093516329365178 0.3093516329365178 -0.053912421123464525 -0.13737209643550677 0.067790644808332495 0.067790644808332495 0.66285378728679856
-0.59329854454227249 -0.69327383245654861 0.060593719227830946 0.3093516329365178 0.3093516329365178 -0.053912421123464525 -0.13737209643550677 0.067790644808332495 0.067790644808332495
0.66285378728679856 -0.59329854454227249 -0.69327383245654861 0.060593719227830946 0.3093516329365178 0.3093516329365178 -0.053912421123464525 -0.13737209643550677 0.067790644808332495
0.067790644808332495 0.66285378728679856 -0.59329854454227249 -0.69327383245654861 0.060593719227830946 0.3093516329365178 0.3093516329365178 -0.053912421123464525 -0.13737209643550677
0.067790644808332495 0.067790644808332495 0.66285378728679856 -0.59329854454227249 -0.69327383245654861 0.060593719227830946 0.3093516329365178 0.3093516329365178 -0.053912421123464525
-0.13737209643550677 0.067790644808332495 0.067790644808332495 0.66285378728679856 -0.59329854454227249 -0.69327383245654861 0.060593719227830946 0.3093516329365178 0.3093516329365178
-0.053912421123464525 -0.13737209643550677 0.067790644808332495 0.067790644808332495 0.66285378728679856 -0.59329854454227249 -0.69327383245654861 0.060593719227830946 0.3093516329365178
0.3093516329365178 -0.053912421123464525 -0.13737209643550677 0.067790644808332495 0.067790644808332495 0.66285378728679856 -0.59329854454227249 -0.69327383245654861 0.060593719227830946
0.3093516329365178 0.3093516329365178 -0.053912421123464525 -0.13737209643550677 0.067790644808332495 0.067790644808332495 0.66285378728679856 -0.59329854454227249 -0.69327383245654861
0.060593719227830946 0.3093516329365178 0.3093516329365178 -0.053988893882711352 -0.1370096852941112 0.068180377228776984 0.068180377228776984 0.66285378728679856 -0.59329854454227249
-0.69327383245654861 0.060593719227830946 0.3093516329365178 0.3093516329365178 -0.059540533827026308 -0.13424858953185839 0.070675256295721106 0.070675256295721106 0.66336942706875046
-0.59475987161823074 -0.69325559343524734 0.058889316959898054 0.3093516329365178 0.3093516329365178 -0.090798084990461297 -0.13549165929981036 0.043748574896375715 0.043748574896375715
0.66390849147609909 -0.60188858713336746 -0.68687914814182083 0.063228080614130072 0.30812926088146408 0.30812926088146408 0.062339829845945417 0.043748574896375715

$$$$
