
     RDKit          3D

 96 95  0  0  0  0  0  0  0  0999 V2000
   -2.1900   -4.8720   11.6100 O   0  0  0  0  0  0  0  0  0  0  0  0
   -2.1730   -4.8990   10.1880 C   0  0  0  0  0  0  0  0  0  0  0  0
   -1.0920   -3.9470    9.6450 C   0  0  0  0  0  0  0  0  0  0  0  0
   -1.1160   -3.9900    8.2060 O   0  0  0  0  0  0  0  0  0  0  0  0
   -0.1670   -3.1110    7.5740 C   0  0  0  0  0  0  0  0  0  0  0  0
   -0.2890   -3.2430    6.0460 C   0  0  0  0  0  0  0  0  0  0  0  0
    0.6200   -2.3100    5.4360 O   0  0  0  0  0  0  0  0  0  0  0  0
    0.6570   -2.3670    4.0000 C   0  0  0  0  0  0  0  0  0  0  0  0
    1.5750   -1.2430    3.4850 C   0  0  0  0  0  0  0  0  0  0  0  0
    1.6530   -1.3160    2.0570 O   0  0  0  0  0  0  0  0  0  0  0  0
    2.2490   -0.4140    1.2200 C   0  0  0  0  0  0  0  0  0  0  0  0
    2.7380    0.6520    1.6660 O   0  0  0  0  0  0  0  0  0  0  0  0
    2.2540   -0.6910   -0.2320 C   0  0  1  0  0  0  0  0  0  0  0  0
    1.1610    0.0600   -0.8000 O   0  0  0  0  0  0  0  0  0  0  0  0
    1.0610    0.8710   -1.8970 C   0  0  0  0  0  0  0  0  0  0  0  0
    2.0410    1.0860   -2.6460 O   0  0  0  0  0  0  0  0  0  0  0  0
   -0.2380    1.4970   -2.2300 C   0  0  2  0  0  0  0  0  0  0  0  0
   -0.6350    2.3800   -1.1610 O   0  0  0  0  0  0  0  0  0  0  0  0
   -1.6510    3.3020   -1.1970 C   0  0  0  0  0  0  0  0  0  0  0  0
   -2.2960    3.4990   -2.2530 O   0  0  0  0  0  0  0  0  0  0  0  0
   -1.9590    4.1090   -0.0060 C   0  0  0  0  0  0  0  0  0  0  0  0
   -3.3310    4.5470   -0.0010 O   0  0  0  0  0  0  0  0  0  0  0  0
   -3.9140    5.3260    0.9630 C   0  0  0  0  0  0  0  0  0  0  0  0
   -3.2680    5.6800    1.9780 O   0  0  0  0  0  0  0  0  0  0  0  0
   -5.3090    5.7880    0.8180 C   0  0  0  0  0  0  0  0  0  0  0  0
   -6.0810    5.5200    2.0070 O   0  0  0  0  0  0  0  0  0  0  0  0
   -6.7080    4.2240    2.0800 C   0  0  0  0  0  0  0  0  0  0  0  0
   -7.1630    3.9720    3.5320 C   0  0  0  0  0  0  0  0  0  0  0  0
   -7.8260    2.7050    3.6160 O   0  0  0  0  0  0  0  0  0  0  0  0
   -8.2370    2.0780    4.7590 C   0  0  0  0  0  0  0  0  0  0  0  0
   -8.0470    2.5930    5.8870 O   0  0  0  0  0  0  0  0  0  0  0  0
   -8.8680    0.7470    4.6470 C   0  0  2  0  0  0  0  0  0  0  0  0
   -7.9680   -0.0520    3.8650 O   0  0  0  0  0  0  0  0  0  0  0  0
   -8.0110   -1.3900    3.6060 C   0  0  0  0  0  0  0  0  0  0  0  0
   -8.9210   -2.1240    4.0580 O   0  0  0  0  0  0  0  0  0  0  0  0
   -6.9460   -1.9810    2.7830 C   0  0  0  0  0  0  0  0  0  0  0  0
   -6.2240   -2.9380    3.5800 O   0  0  0  0  0  0  0  0  0  0  0  0
   -5.1160   -3.5600    2.9050 C   0  0  0  0  0  0  0  0  0  0  0  0
   -4.3990   -4.5010    3.8910 C   0  0  0  0  0  0  0  0  0  0  0  0
   -3.2440   -5.0760    3.2500 O   0  0  0  0  0  0  0  0  0  0  0  0
   -2.5180   -6.0390    4.0400 C   0  0  0  0  0  0  0  0  0  0  0  0
   -1.2380   -6.4370    3.1490 C   0  0  0  0  0  0  0  0  0  0  0  0
   -0.4560   -7.4750    3.8600 O   0  0  0  0  0  0  0  0  0  0  0  0
    0.7850   -8.1040    3.3430 C   0  0  0  0  0  0  0  0  0  0  0  0
    1.2860   -9.1740    4.3290 C   0  0  0  0  0  0  0  0  0  0  0  0
  -10.2760    0.8460    4.0100 C   0  0  0  0  0  0  0  0  0  0  0  0
   -1.3230    0.4270   -2.5210 C   0  0  0  0  0  0  0  0  0  0  0  0
    3.6680   -0.5070   -0.8500 C   0  0  0  0  0  0  0  0  0  0  0  0
   -2.8610   -5.4630   11.9300 H   0  0  0  0  0  0  0  0  0  0  0  0
   -1.9580   -5.9230    9.8480 H   0  0  0  0  0  0  0  0  0  0  0  0
   -3.1560   -4.5850    9.8080 H   0  0  0  0  0  0  0  0  0  0  0  0
   -1.2960   -2.9220    9.9880 H   0  0  0  0  0  0  0  0  0  0  0  0
   -0.1030   -4.2650   10.0080 H   0  0  0  0  0  0  0  0  0  0  0  0
   -0.3750   -2.0720    7.8710 H   0  0  0  0  0  0  0  0  0  0  0  0
    0.8520   -3.3850    7.8860 H   0  0  0  0  0  0  0  0  0  0  0  0
   -0.0310   -4.2680    5.7400 H   0  0  0  0  0  0  0  0  0  0  0  0
   -1.3190   -3.0160    5.7350 H   0  0  0  0  0  0  0  0  0  0  0  0
    1.0500   -3.3430    3.6780 H   0  0  0  0  0  0  0  0  0  0  0  0
   -0.3580   -2.2300    3.5980 H   0  0  0  0  0  0  0  0  0  0  0  0
    1.1630   -0.2670    3.7820 H   0  0  0  0  0  0  0  0  0  0  0  0
    2.5800   -1.3630    3.9150 H   0  0  0  0  0  0  0  0  0  0  0  0
    2.0110   -1.7570   -0.3510 H   0  0  0  0  0  0  0  0  0  0  0  0
   -0.1080    2.0900   -3.1470 H   0  0  0  0  0  0  0  0  0  0  0  0
   -1.7750    3.5030    0.8930 H   0  0  0  0  0  0  0  0  0  0  0  0
   -1.3030    4.9920    0.0060 H   0  0  0  0  0  0  0  0  0  0  0  0
   -5.3090    6.8720    0.6290 H   0  0  0  0  0  0  0  0  0  0  0  0
   -5.7710    5.2670   -0.0330 H   0  0  0  0  0  0  0  0  0  0  0  0
   -7.5800    4.1970    1.4100 H   0  0  0  0  0  0  0  0  0  0  0  0
   -5.9890    3.4480    1.7780 H   0  0  0  0  0  0  0  0  0  0  0  0
   -6.2860    3.9700    4.1950 H   0  0  0  0  0  0  0  0  0  0  0  0
   -7.8550    4.7690    3.8420 H   0  0  0  0  0  0  0  0  0  0  0  0
   -8.9740    0.3120    5.6520 H   0  0  0  0  0  0  0  0  0  0  0  0
   -7.3890   -2.4840    1.9110 H   0  0  0  0  0  0  0  0  0  0  0  0
   -6.2610   -1.1910    2.4420 H   0  0  0  0  0  0  0  0  0  0  0  0
   -5.4840   -4.1380    2.0440 H   0  0  0  0  0  0  0  0  0  0  0  0
   -4.4150   -2.7880    2.5550 H   0  0  0  0  0  0  0  0  0  0  0  0
   -4.0820   -3.9310    4.7770 H   0  0  0  0  0  0  0  0  0  0  0  0
   -5.0860   -5.3030    4.1980 H   0  0  0  0  0  0  0  0  0  0  0  0
   -2.2000   -5.5940    4.9940 H   0  0  0  0  0  0  0  0  0  0  0  0
   -3.1410   -6.9240    4.2370 H   0  0  0  0  0  0  0  0  0  0  0  0
   -1.5730   -6.8290    2.1770 H   0  0  0  0  0  0  0  0  0  0  0  0
   -0.6100   -5.5480    2.9890 H   0  0  0  0  0  0  0  0  0  0  0  0
    0.5770   -8.5740    2.3710 H   0  0  0  0  0  0  0  0  0  0  0  0
    1.5590   -7.3330    3.2190 H   0  0  0  0  0  0  0  0  0  0  0  0
    2.2050   -9.6330    3.9370 H   0  0  0  0  0  0  0  0  0  0  0  0
    1.4970   -8.7060    5.3020 H   0  0  0  0  0  0  0  0  0  0  0  0
    0.5140   -9.9480    4.4540 H   0  0  0  0  0  0  0  0  0  0  0  0
  -10.7190   -0.1580    3.9400 H   0  0  0  0  0  0  0  0  0  0  0  0
  -10.9160    1.4860    4.6340 H   0  0  0  0  0  0  0  0  0  0  0  0
  -10.1930    1.2810    3.0030 H   0  0  0  0  0  0  0  0  0  0  0  0
   -2.2730    0.9250   -2.7640 H   0  0  0  0  0  0  0  0  0  0  0  0
   -1.0060   -0.1940   -3.3720 H   0  0  0  0  0  0  0  0  0  0  0  0
   -1.4590   -0.2080   -1.6330 H   0  0  0  0  0  0  0  0  0  0  0  0
    3.6280   -0.7220   -1.9280 H   0  0  0  0  0  0  0  0  0  0  0  0
    4.0040    0.5290   -0.6950 H   0  0  0  0  0  0  0  0  0  0  0  0
    4.3730   -1.1980   -0.3640 H   0  0  0  0  0  0  0  0  0  0  0  0
  1  2  1  0
  1 49  1  0
  2  3  1  0
  2 50  1  0
  2 51  1  0
  3  4  1  0
  3 52  1  0
  3 53  1  0
  4  5  1  0
  5  6  1  0
  5 54  1  0
  5 55  1  0
  6  7  1  0
  6 56  1  0
  6 57  1  0
  7  8  1  0
  8  9  1  0
  8 58  1  0
  8 59  1  0
  9 10  1  0
  9 60  1  0
  9 61  1  0
 10 11  1  0
 11 12  2  0
 11 13  1  0
 13 14  1  0
 13 48  1  0
 13 62  1  1
 14 15  1  0
 15 16  2  0
 15 17  1  0
 17 18  1  0
 17 47  1  0
 17 63  1  6
 18 19  1  0
 19 20  2  0
 19 21  1  0
 21 22  1  0
 21 64  1  0
 21 65  1  0
 22 23  1  0
 23 24  2  0
 23 25  1  0
 25 26  1  0
 25 66  1  0
 25 67  1  0
 26 27  1  0
 27 28  1  0
 27 68  1  0
 27 69  1  0
 28 29  1  0
 28 70  1  0
 28 71  1  0
 29 30  1  0
 30 31  2  0
 30 32  1  0
 32 33  1  0
 32 46  1  0
 32 72  1  1
 33 34  1  0
 34 35  2  0
 34 36  1  0
 36 37  1  0
 36 73  1  0
 36 74  1  0
 37 38  1  0
 38 39  1  0
 38 75  1  0
 38 76  1  0
 39 40  1  0
 39 77  1  0
 39 78  1  0
 40 41  1  0
 41 42  1  0
 41 79  1  0
 41 80  1  0
 42 43  1  0
 42 81  1  0
 42 82  1  0
 43 44  1  0
 44 45  1  0
 44 83  1  0
 44 84  1  0
 45 85  1  0
 45 86  1  0
 45 87  1  0
 46 88  1  0
 46 89  1  0
 46 90  1  0
 47 91  1  0
 47 92  1  0
 47 93  1  0
 48 94  1  0
 48 95  1  0
 48 96  1  0
M  END
>  <charge_method>  (1) 
NAGL

>  <metadata>  (1) 
{0: {'residue_name': 'PEG_TERM2', 'residue_number': 13, 'insertion_code': ' ', 'chain_id': ' ', 'match_info': '{"1": ["PEG", 3], "13": ["PEG_TERM2", 3]}', 'substructure_query_id': 3}, 1: {'residue_name': 'PEG_TERM2', 'residue_number': 13, 'insertion_code': ' ', 'chain_id': ' ', 'match_info': '{"0": ["PEG", 1], "1": ["PEG", 2], "13": ["PEG_TERM2", 2]}', 'substructure_query_id': 2}, 2: {'residue_name': 'PEG_TERM2', 'residue_number': 13, 'insertion_code': ' ', 'chain_id': ' ', 'match_info': '{"0": ["PEG", 2], "1": ["PEG", 1], "13": ["PEG_TERM2", 1]}', 'substructure_query_id': 1}, 3: {'residue_name': 'PEG', 'residue_number': 3, 'insertion_code': ' ', 'chain_id': ' ', 'match_info': '{"0": ["PEG", 3], "3": ["PEG", 3]}', 'substructure_query_id': 3}, 4: {'residue_name': 'PEG', 'residue_number': 3, 'insertion_code': ' ', 'chain_id': ' ', 'match_info': '{"2": ["PEG", 1], "3": ["PEG", 2]}', 'substructure_query_id': 2}, 5: {'residue_name': 'PEG', 'residue_number': 3, 'insertion_code': ' ', 'chain_id': ' ', 'match_info': '{"2": ["PEG", 2], "3": ["PEG", 1]}', 'substructure_query_id': 1}, 6: {'residue_name': 'PEG', 'residue_number': 5, 'insertion_code': ' ', 'chain_id': ' ', 'match_info': '{"2": ["PEG", 3], "5": ["PEG", 3]}', 'substructure_query_id': 3}, 7: {'residue_name': 'PEG', 'residue_number': 5, 'insertion_code': ' ', 'chain_id': ' ', 'match_info': '{"4": ["PEG", 1], "5": ["PEG", 2]}', 'substructure_query_id': 2}, 8: {'residue_name': 'PEG', 'residue_number': 5, 'insertion_code': ' ', 'chain_id': ' ', 'match_info': '{"4": ["PEG", 2], "5": ["PEG", 1]}', 'substructure_query_id': 1}, 9: {'residue_name': 'PLGA1', 'residue_number': 15, 'insertion_code': ' ', 'chain_id': ' ', 'match_info': '{"4": ["PEG", 3], "15": ["PLGA1", 1]}', 'substructure_query_id': 1}, 10: {'residue_name': 'PLGA1', 'residue_number': 15, 'insertion_code': ' ', 'chain_id': ' ', 'match_info': '{"15": ["PLGA1", 2]}', 'substructure_query_id': 2}, 11: {'residue_name': 'PLGA1', 'residue_number': 15, 'insertion_code': ' ', 'chain_id': ' ', 'match_info': '{"15": ["PLGA1", 3]}', 'substructure_query_id': 3}, 12: {'residue_name': 'PLGA1', 'residue_number': 15, 'insertion_code': ' ', 'chain_id': ' ', 'match_info': '{"15": ["PLGA1", 4]}', 'substructure_query_id': 4}, 13: {'residue_name': 'PLGA1', 'residue_number': 16, 'insertion_code': ' ', 'chain_id': ' ', 'match_info': '{"16": ["PLGA1", 1]}', 'substructure_query_id': 1}, 14: {'residue_name': 'PLGA1', 'residue_number': 16, 'insertion_code': ' ', 'chain_id': ' ', 'match_info': '{"16": ["PLGA1", 2]}', 'substructure_query_id': 2}, 15: {'residue_name': 'PLGA1', 'residue_number': 16, 'insertion_code': ' ', 'chain_id': ' ', 'match_info': '{"16": ["PLGA1", 3]}', 'substructure_query_id': 3}, 16: {'residue_name': 'PLGA1', 'residue_number': 16, 'insertion_code': ' ', 'chain_id': ' ', 'match_info': '{"16": ["PLGA1", 4]}', 'substructure_query_id': 4}, 17: {'residue_name': 'PLGA2', 'residue_number': 18, 'insertion_code': ' ', 'chain_id': ' ', 'match_info': '{"18": ["PLGA2", 1]}', 'substructure_query_id': 1}, 18: {'residue_name': 'PLGA2', 'residue_number': 18, 'insertion_code': ' ', 'chain_id': ' ', 'match_info': '{"18": ["PLGA2", 2]}', 'substructure_query_id': 2}, 19: {'residue_name': 'PLGA2', 'residue_number': 18, 'insertion_code': ' ', 'chain_id': ' ', 'match_info': '{"18": ["PLGA2", 3]}', 'substructure_query_id': 3}, 20: {'residue_name': 'PLGA2', 'residue_number': 18, 'insertion_code': ' ', 'chain_id': ' ', 'match_info': '{"18": ["PLGA2", 4]}', 'substructure_query_id': 4}, 21: {'residue_name': 'PLGA2', 'residue_number': 19, 'insertion_code': ' ', 'chain_id': ' ', 'match_info': '{"19": ["PLGA2", 1]}', 'substructure_query_id': 1}, 22: {'residue_name': 'PLGA2', 'residue_number': 19, 'insertion_code': ' ', 'chain_id': ' ', 'match_info': '{"19": ["PLGA2", 2]}', 'substructure_query_id': 2}, 23: {'residue_name': 'PLGA2', 'residue_number': 19, 'insertion_code': ' ', 'chain_id': ' ', 'match_info': '{"19": ["PLGA2", 3]}', 'substructure_query_id': 3}, 24: {'residue_name': 'PLGA2', 'residue_number': 19, 'insertion_code': ' ', 'chain_id': ' ', 'match_info': '{"19": ["PLGA2", 4]}', 'substructure_query_id': 4}, 25: {'residue_name': 'PEG', 'residue_number': 7, 'insertion_code': ' ', 'chain_id': ' ', 'match_info': '{"7": ["PEG", 3]}', 'substructure_query_id': 3}, 26: {'residue_name': 'PEG', 'residue_number': 7, 'insertion_code': ' ', 'chain_id': ' ', 'match_info': '{"6": ["PEG", 1], "7": ["PEG", 2]}', 'substructure_query_id': 2}, 27: {'residue_name': 'PEG', 'residue_number': 7, 'insertion_code': ' ', 'chain_id': ' ', 'match_info': '{"6": ["PEG", 2], "7": ["PEG", 1]}', 'substructure_query_id': 1}, 28: {'residue_name': 'PLGA1', 'residue_number': 17, 'insertion_code': ' ', 'chain_id': ' ', 'match_info': '{"6": ["PEG", 3], "17": ["PLGA1", 1]}', 'substructure_query_id': 1}, 29: {'residue_name': 'PLGA1', 'residue_number': 17, 'insertion_code': ' ', 'chain_id': ' ', 'match_info': '{"17": ["PLGA1", 2]}', 'substructure_query_id': 2}, 30: {'residue_name': 'PLGA1', 'residue_number': 17, 'insertion_code': ' ', 'chain_id': ' ', 'match_info': '{"17": ["PLGA1", 3]}', 'substructure_query_id': 3}, 31: {'residue_name': 'PLGA1', 'residue_number': 17, 'insertion_code': ' ', 'chain_id': ' ', 'match_info': '{"17": ["PLGA1", 4]}', 'substructure_query_id': 4}, 32: {'residue_name': 'PLGA2', 'residue_number': 20, 'insertion_code': ' ', 'chain_id': ' ', 'match_info': '{"20": ["PLGA2", 1]}', 'substructure_query_id': 1}, 33: {'residue_name': 'PLGA2', 'residue_number': 20, 'insertion_code': ' ', 'chain_id': ' ', 'match_info': '{"20": ["PLGA2", 2]}', 'substructure_query_id': 2}, 34: {'residue_name': 'PLGA2', 'residue_number': 20, 'insertion_code': ' ', 'chain_id': ' ', 'match_info': '{"20": ["PLGA2", 3]}', 'substructure_query_id': 3}, 35: {'residue_name': 'PLGA2', 'residue_number': 20, 'insertion_code': ' ', 'chain_id': ' ', 'match_info': '{"20": ["PLGA2", 4]}', 'substructure_query_id': 4}, 36: {'residue_name': 'PEG', 'residue_number': 9, 'insertion_code': ' ', 'chain_id': ' ', 'match_info': '{"9": ["PEG", 3]}', 'substructure_query_id': 3}, 37: {'residue_name': 'PEG', 'residue_number': 9, 'insertion_code': ' ', 'chain_id': ' ', 'match_info': '{"8": ["PEG", 1], "9": ["PEG", 2]}', 'substructure_query_id': 2}, 38: {'residue_name': 'PEG', 'residue_number': 9, 'insertion_code': ' ', 'chain_id': ' ', 'match_info': '{"8": ["PEG", 2], "9": ["PEG", 1]}', 'substructure_query_id': 1}, 39: {'residue_name': 'PEG', 'residue_number': 11, 'insertion_code': ' ', 'chain_id': ' ', 'match_info': '{"8": ["PEG", 3], "11": ["PEG", 3]}', 'substructure_query_id': 3}, 40: {'residue_name': 'PEG', 'residue_number': 11, 'insertion_code': ' ', 'chain_id': ' ', 'match_info': '{"10": ["PEG", 1], "11": ["PEG", 2]}', 'substructure_query_id': 2}, 41: {'residue_name': 'PEG', 'residue_number': 11, 'insertion_code': ' ', 'chain_id': ' ', 'match_info': '{"10": ["PEG", 2], "11": ["PEG", 1]}', 'substructure_query_id': 1}, 42: {'residue_name': 'PEG_TERM3', 'residue_number': 14, 'insertion_code': ' ', 'chain_id': ' ', 'match_info': '{"10": ["PEG", 3], "12": ["PEG", 3], "14": ["PEG_TERM3", 3]}', 'substructure_query_id': 3}, 43: {'residue_name': 'PEG_TERM3', 'residue_number': 14, 'insertion_code': ' ', 'chain_id': ' ', 'match_info': '{"12": ["PEG", 2], "14": ["PEG_TERM3", 2]}', 'substructure_query_id': 2}, 44: {'residue_name': 'PEG_TERM3', 'residue_number': 14, 'insertion_code': ' ', 'chain_id': ' ', 'match_info': '{"12": ["PEG", 1], "14": ["PEG_TERM3", 1]}', 'substructure_query_id': 1}, 45: {'residue_name': 'PLGA1', 'residue_number': 17, 'insertion_code': ' ', 'chain_id': ' ', 'match_info': '{"17": ["PLGA1", 6]}', 'substructure_query_id': 6}, 46: {'residue_name': 'PLGA1', 'residue_number': 16, 'insertion_code': ' ', 'chain_id': ' ', 'match_info': '{"16": ["PLGA1", 6]}', 'substructure_query_id': 6}, 47: {'residue_name': 'PLGA1', 'residue_number': 15, 'insertion_code': ' ', 'chain_id': ' ', 'match_info': '{"15": ["PLGA1", 6]}', 'substructure_query_id': 6}, 48: {'residue_name': 'PEG_TERM2', 'residue_number': 13, 'insertion_code': ' ', 'chain_id': ' ', 'match_info': '{"13": ["PEG_TERM2", 4]}', 'substructure_query_id': 4}, 49: {'residue_name': 'PEG_TERM2', 'residue_number': 13, 'insertion_code': ' ', 'chain_id': ' ', 'match_info': '{"0": ["PEG", 7], "1": ["PEG", 5], "13": ["PEG_TERM2", 5]}', 'substructure_query_id': 5}, 50: {'residue_name': 'PEG_TERM2', 'residue_number': 13, 'insertion_code': ' ', 'chain_id': ' ', 'match_info': '{"0": ["PEG", 8], "1": ["PEG", 6], "13": ["PEG_TERM2", 6]}', 'substructure_query_id': 6}, 51: {'residue_name': 'PEG_TERM2', 'residue_number': 13, 'insertion_code': ' ', 'chain_id': ' ', 'match_info': '{"0": ["PEG", 5], "1": ["PEG", 7], "13": ["PEG_TERM2", 7]}', 'substructure_query_id': 7}, 52: {'residue_name': 'PEG_TERM2', 'residue_number': 13, 'insertion_code': ' ', 'chain_id': ' ', 'match_info': '{"0": ["PEG", 6], "1": ["PEG", 8], "13": ["PEG_TERM2", 8]}', 'substructure_query_id': 8}, 53: {'residue_name': 'PEG', 'residue_number': 3, 'insertion_code': ' ', 'chain_id': ' ', 'match_info': '{"2": ["PEG", 7], "3": ["PEG", 5]}', 'substructure_query_id': 5}, 54: {'residue_name': 'PEG', 'residue_number': 3, 'insertion_code': ' ', 'chain_id': ' ', 'match_info': '{"2": ["PEG", 8], "3": ["PEG", 6]}', 'substructure_query_id': 6}, 55: {'residue_name': 'PEG', 'residue_number': 3, 'insertion_code': ' ', 'chain_id': ' ', 'match_info': '{"2": ["PEG", 5], "3": ["PEG", 7]}', 'substructure_query_id': 7}, 56: {'residue_name': 'PEG', 'residue_number': 3, 'insertion_code': ' ', 'chain_id': ' ', 'match_info': '{"2": ["PEG", 6], "3": ["PEG", 8]}', 'substructure_query_id': 8}, 57: {'residue_name': 'PEG', 'residue_number': 5, 'insertion_code': ' ', 'chain_id': ' ', 'match_info': '{"4": ["PEG", 7], "5": ["PEG", 5]}', 'substructure_query_id': 5}, 58: {'residue_name': 'PEG', 'residue_number': 5, 'insertion_code': ' ', 'chain_id': ' ', 'match_info': '{"4": ["PEG", 8], "5": ["PEG", 6]}', 'substructure_query_id': 6}, 59: {'residue_name': 'PEG', 'residue_number': 5, 'insertion_code': ' ', 'chain_id': ' ', 'match_info': '{"4": ["PEG", 5], "5": ["PEG", 7]}', 'substructure_query_id': 7}, 60: {'residue_name': 'PEG', 'residue_number': 5, 'insertion_code': ' ', 'chain_id': ' ', 'match_info': '{"4": ["PEG", 6], "5": ["PEG", 8]}', 'substructure_query_id': 8}, 61: {'residue_name': 'PLGA1', 'residue_number': 15, 'insertion_code': ' ', 'chain_id': ' ', 'match_info': '{"15": ["PLGA1", 5]}', 'substructure_query_id': 5}, 62: {'residue_name': 'PLGA1', 'residue_number': 16, 'insertion_code': ' ', 'chain_id': ' ', 'match_info': '{"16": ["PLGA1", 5]}', 'substructure_query_id': 5}, 63: {'residue_name': 'PLGA2', 'residue_number': 18, 'insertion_code': ' ', 'chain_id': ' ', 'match_info': '{"18": ["PLGA2", 5]}', 'substructure_query_id': 5}, 64: {'residue_name': 'PLGA2', 'residue_number': 18, 'insertion_code': ' ', 'chain_id': ' ', 'match_info': '{"18": ["PLGA2", 6]}', 'substructure_query_id': 6}, 65: {'residue_name': 'PLGA2', 'residue_number': 19, 'insertion_code': ' ', 'chain_id': ' ', 'match_info': '{"19": ["PLGA2", 5]}', 'substructure_query_id': 5}, 66: {'residue_name': 'PLGA2', 'residue_number': 19, 'insertion_code': ' ', 'chain_id': ' ', 'match_info': '{"19": ["PLGA2", 6]}', 'substructure_query_id': 6}, 67: {'residue_name': 'PEG', 'residue_number': 7, 'insertion_code': ' ', 'chain_id': ' ', 'match_info': '{"6": ["PEG", 7], "7": ["PEG", 5]}', 'substructure_query_id': 5}, 68: {'residue_name': 'PEG', 'residue_number': 7, 'insertion_code': ' ', 'chain_id': ' ', 'match_info': '{"6": ["PEG", 8], "7": ["PEG", 6]}', 'substructure_query_id': 6}, 69: {'residue_name': 'PEG', 'residue_number': 7, 'insertion_code': ' ', 'chain_id': ' ', 'match_info': '{"6": ["PEG", 5], "7": ["PEG", 7]}', 'substructure_query_id': 7}, 70: {'residue_name': 'PEG', 'residue_number': 7, 'insertion_code': ' ', 'chain_id': ' ', 'match_info': '{"6": ["PEG", 6], "7": ["PEG", 8]}', 'substructure_query_id': 8}, 71: {'residue_name': 'PLGA1', 'residue_number': 17, 'insertion_code': ' ', 'chain_id': ' ', 'match_info': '{"17": ["PLGA1", 5]}', 'substructure_query_id': 5}, 72: {'residue_name': 'PLGA2', 'residue_number': 20, 'insertion_code': ' ', 'chain_id': ' ', 'match_info': '{"20": ["PLGA2", 5]}', 'substructure_query_id': 5}, 73: {'residue_name': 'PLGA2', 'residue_number': 20, 'insertion_code': ' ', 'chain_id': ' ', 'match_info': '{"20": ["PLGA2", 6]}', 'substructure_query_id': 6}, 74: {'residue_name': 'PEG', 'residue_number': 9, 'insertion_code': ' ', 'chain_id': ' ', 'match_info': '{"8": ["PEG", 7], "9": ["PEG", 5]}', 'substructure_query_id': 5}, 75: {'residue_name': 'PEG', 'residue_number': 9, 'insertion_code': ' ', 'chain_id': ' ', 'match_info': '{"8": ["PEG", 8], "9": ["PEG", 6]}', 'substructure_query_id': 6}, 76: {'residue_name': 'PEG', 'residue_number': 9, 'insertion_code': ' ', 'chain_id': ' ', 'match_info': '{"8": ["PEG", 5], "9": ["PEG", 7]}', 'substructure_query_id': 7}, 77: {'residue_name': 'PEG', 'residue_number': 9, 'insertion_code': ' ', 'chain_id': ' ', 'match_info': '{"8": ["PEG", 6], "9": ["PEG", 8]}', 'substructure_query_id': 8}, 78: {'residue_name': 'PEG', 'residue_number': 11, 'insertion_code': ' ', 'chain_id': ' ', 'match_info': '{"10": ["PEG", 7], "11": ["PEG", 5]}', 'substructure_query_id': 5}, 79: {'residue_name': 'PEG', 'residue_number': 11, 'insertion_code': ' ', 'chain_id': ' ', 'match_info': '{"10": ["PEG", 8], "11": ["PEG", 6]}', 'substructure_query_id': 6}, 80: {'residue_name': 'PEG', 'residue_number': 11, 'insertion_code': ' ', 'chain_id': ' ', 'match_info': '{"10": ["PEG", 5], "11": ["PEG", 7]}', 'substructure_query_id': 7}, 81: {'residue_name': 'PEG', 'residue_number': 11, 'insertion_code': ' ', 'chain_id': ' ', 'match_info': '{"10": ["PEG", 6], "11": ["PEG", 8]}', 'substructure_query_id': 8}, 82: {'residue_name': 'PEG_TERM3', 'residue_number': 14, 'insertion_code': ' ', 'chain_id': ' ', 'match_info': '{"12": ["PEG", 5], "14": ["PEG_TERM3", 5]}', 'substructure_query_id': 5}, 83: {'residue_name': 'PEG_TERM3', 'residue_number': 14, 'insertion_code': ' ', 'chain_id': ' ', 'match_info': '{"12": ["PEG", 6], "14": ["PEG_TERM3", 6]}', 'substructure_query_id': 6}, 84: {'residue_name': 'PEG_TERM3', 'residue_number': 14, 'insertion_code': ' ', 'chain_id': ' ', 'match_info': '{"14": ["PEG_TERM3", 0]}', 'substructure_query_id': 0}, 85: {'residue_name': 'PEG_TERM3', 'residue_number': 14, 'insertion_code': ' ', 'chain_id': ' ', 'match_info': '{"12": ["PEG", 7], "14": ["PEG_TERM3", 7]}', 'substructure_query_id': 7}, 86: {'residue_name': 'PEG_TERM3', 'residue_number': 14, 'insertion_code': ' ', 'chain_id': ' ', 'match_info': '{"12": ["PEG", 8], "14": ["PEG_TERM3", 8]}', 'substructure_query_id': 8}, 87: {'residue_name': 'PLGA1', 'residue_number': 17, 'insertion_code': ' ', 'chain_id': ' ', 'match_info': '{"17": ["PLGA1", 7]}', 'substructure_query_id': 7}, 88: {'residue_name': 'PLGA1', 'residue_number': 17, 'insertion_code': ' ', 'chain_id': ' ', 'match_info': '{"17": ["PLGA1", 8]}', 'substructure_query_id': 8}, 89: {'residue_name': 'PLGA1', 'residue_number': 17, 'insertion_code': ' ', 'chain_id': ' ', 'match_info': '{"17": ["PLGA1", 9]}', 'substructure_query_id': 9}, 90: {'residue_name': 'PLGA1', 'residue_number': 16, 'insertion_code': ' ', 'chain_id': ' ', 'match_info': '{"16": ["PLGA1", 7]}', 'substructure_query_id': 7}, 91: {'residue_name': 'PLGA1', 'residue_number': 16, 'insertion_code': ' ', 'chain_id': ' ', 'match_info': '{"16": ["PLGA1", 8]}', 'substructure_query_id': 8}, 92: {'residue_name': 'PLGA1', 'residue_number': 16, 'insertion_code': ' ', 'chain_id': ' ', 'match_info': '{"16": ["PLGA1", 9]}', 'substructure_query_id': 9}, 93: {'residue_name': 'PLGA1', 'residue_number': 15, 'insertion_code': ' ', 'chain_id': ' ', 'match_info': '{"15": ["PLGA1", 7]}', 'substructure_query_id': 7}, 94: {'residue_name': 'PLGA1', 'residue_number': 15, 'insertion_code': ' ', 'chain_id': ' ', 'match_info': '{"15": ["PLGA1", 8]}', 'substructure_query_id': 8}, 95: {'residue_name': 'PLGA1', 'residue_number': 15, 'insertion_code': ' ', 'chain_id': ' ', 'match_info': '{"15": ["PLGA1", 9]}', 'substructure_query_id': 9}}

>  <atom.dprop.PartialCharge>  (1) 
-0.59495341370347887 0.12468555977102369 0.12510446121450514 -0.42196294257882982 0.12368680944200605 0.12294009735342115 -0.42035635898355395 0.12441470881458372 0.13231040944810957
-0.44550749252084643 0.63973594119306654 -0.51402103493455797 0.099484701058827341 -0.43024593184236437 0.64351630618330091 -0.5056015212321654 0.099238273105584085 -0.43182861397508532
0.64597827603574842 -0.50922184775117785 0.084493611357174814 -0.43492450902704149 0.63870639016386122 -0.50076514075044543 0.086948726675473154 -0.39515658805612475 0.12704503943677992
0.1364362578606233 -0.44461097905877978 0.63846815039869398 -0.51419388840440661 0.095583323738537729 -0.43568124959710985 0.64271045138593763 -0.49771520087961107 0.083977286121807992
-0.39595797250512987 0.12099370767828077 0.12272899260278791 -0.41619193146470934 0.12160104920621961 0.1254102032398805 -0.42095100472215563 0.13313982298132032 -0.10764528403524309
-0.11173933336976916 -0.11164166370872408 -0.11159351805690676 0.40405682136770338 0.039128203294239938 0.039128203294239938 0.047905408195219934 0.047905408195219934 0.047794092795811594
0.047794092795811594 0.048380252323113382 0.048380252323113382 0.047204394242726266 0.047204394242726266 0.070606951019726694 0.070606951019726694 0.100749347708188 0.10222633590456098
0.091219980618916452 0.091219980618916452 0.068437565467320383 0.068437565467320383 0.042555738589726388 0.042555738589726388 0.074015308520756662 0.074015308520756662 0.10126582940574735
0.067363579175435007 0.067363579175435007 0.04710796510335058 0.04710796510335058 0.050493199727497995 0.050493199727497995 0.049010914168320596 0.049010914168320596 0.042020146152935922
0.042020146152935922 0.031642105779610574 0.031642105779610574 0.048550706706009805 0.048550706706009805 0.048550706706009805 0.060924116871319711 0.060924116871319711 0.060924116871319711
0.06119390984531492 0.06119390984531492 0.06119390984531492 0.061017573229037225 0.061017573229037225 0.061017573229037225

$$$$
