
     RDKit          3D

515514  0  0  0  0  0  0  0  0999 V2000
    4.1260  -10.5420    2.3630 C   0  0  0  0  0  0  0  0  0  0  0  0
    3.5400  -11.9780    2.5510 C   0  0  0  0  0  0  0  0  0  0  0  0
    4.7470  -10.3220    3.2340 H   0  0  0  0  0  0  0  0  0  0  0  0
    3.3090   -9.8330    2.3770 H   0  0  0  0  0  0  0  0  0  0  0  0
    2.4770  -12.4290    1.6700 C   0  0  0  0  0  0  0  0  0  0  0  0
    2.7610  -12.6170    0.5010 O   0  0  0  0  0  0  0  0  0  0  0  0
    1.2930  -12.8310    1.9550 N   0  0  0  0  0  0  0  0  0  0  0  0
    4.3350  -12.7230    2.5890 H   0  0  0  0  0  0  0  0  0  0  0  0
    0.7780  -13.0000    3.2150 C   0  0  0  0  0  0  0  0  0  0  0  0
    0.7610  -13.0990    1.2340 H   0  0  0  0  0  0  0  0  0  0  0  0
   -0.1880  -14.1900    3.2400 C   0  0  0  0  0  0  0  0  0  0  0  0
    0.3840  -15.1010    3.0840 H   0  0  0  0  0  0  0  0  0  0  0  0
   -0.9500  -14.1030    2.4670 H   0  0  0  0  0  0  0  0  0  0  0  0
   -0.6780  -14.2500    4.2120 H   0  0  0  0  0  0  0  0  0  0  0  0
   -0.0050  -11.7590    3.6020 C   0  0  0  0  0  0  0  0  0  0  0  0
    1.5620  -13.1890    3.9410 H   0  0  0  0  0  0  0  0  0  0  0  0
   -0.3730  -11.8710    4.6200 H   0  0  0  0  0  0  0  0  0  0  0  0
   -0.8620  -11.6140    2.9520 H   0  0  0  0  0  0  0  0  0  0  0  0
    0.6280  -10.8780    3.5540 H   0  0  0  0  0  0  0  0  0  0  0  0
    5.2100   -8.8850    0.5320 C   0  0  0  0  0  0  0  0  0  0  0  0
    4.9600  -10.3360    1.0620 C   0  0  1  0  0  0  0  0  0  0  0  0
    5.7680   -9.0000   -0.3950 H   0  0  0  0  0  0  0  0  0  0  0  0
    4.2350   -8.4780    0.2580 H   0  0  0  0  0  0  0  0  0  0  0  0
    6.2130  -11.0690    1.1120 C   0  0  0  0  0  0  0  0  0  0  0  0
    7.0190  -10.8020    1.9910 O   0  0  0  0  0  0  0  0  0  0  0  0
    6.5000  -11.9620    0.2460 N   0  0  0  0  0  0  0  0  0  0  0  0
    4.3400  -10.7520    0.2720 H   0  0  0  0  0  0  0  0  0  0  0  0
    7.6750  -12.6590    0.2060 C   0  0  0  0  0  0  0  0  0  0  0  0
    5.8580  -12.1690   -0.3880 H   0  0  0  0  0  0  0  0  0  0  0  0
    7.9430  -13.0860   -1.2440 C   0  0  0  0  0  0  0  0  0  0  0  0
    7.0820  -13.5720   -1.6940 H   0  0  0  0  0  0  0  0  0  0  0  0
    8.7630  -13.7970   -1.2850 H   0  0  0  0  0  0  0  0  0  0  0  0
    8.1980  -12.2080   -1.8380 H   0  0  0  0  0  0  0  0  0  0  0  0
    7.4950  -13.8890    1.0850 C   0  0  0  0  0  0  0  0  0  0  0  0
    8.5270  -12.0710    0.5440 H   0  0  0  0  0  0  0  0  0  0  0  0
    6.6300  -14.4700    0.7720 H   0  0  0  0  0  0  0  0  0  0  0  0
    7.3670  -13.5750    2.1200 H   0  0  0  0  0  0  0  0  0  0  0  0
    8.3850  -14.5130    1.0280 H   0  0  0  0  0  0  0  0  0  0  0  0
    5.0700   -6.6850    1.9000 C   0  0  0  0  0  0  0  0  0  0  0  0
    5.9670   -7.8450    1.4140 C   0  0  2  0  0  0  0  0  0  0  0  0
    4.1840   -7.2550    2.1240 H   0  0  0  0  0  0  0  0  0  0  0  0
    5.5670   -6.3440    2.7910 H   0  0  0  0  0  0  0  0  0  0  0  0
    7.2400   -7.3740    0.9050 C   0  0  0  0  0  0  0  0  0  0  0  0
    7.2340   -6.7980   -0.1710 O   0  0  0  0  0  0  0  0  0  0  0  0
    8.3460   -7.5600    1.5150 N   0  0  0  0  0  0  0  0  0  0  0  0
    6.1750   -8.3880    2.3380 H   0  0  0  0  0  0  0  0  0  0  0  0
    9.5790   -7.1540    1.0770 C   0  0  0  0  0  0  0  0  0  0  0  0
    8.3290   -8.0050    2.3340 H   0  0  0  0  0  0  0  0  0  0  0  0
   10.3810   -8.4290    0.8440 C   0  0  0  0  0  0  0  0  0  0  0  0
   10.4890   -8.9830    1.7730 H   0  0  0  0  0  0  0  0  0  0  0  0
   11.3710   -8.1780    0.4640 H   0  0  0  0  0  0  0  0  0  0  0  0
    9.8720   -9.0550    0.1110 H   0  0  0  0  0  0  0  0  0  0  0  0
   10.2200   -6.3150    2.1780 C   0  0  0  0  0  0  0  0  0  0  0  0
    9.5710   -6.5660    0.1590 H   0  0  0  0  0  0  0  0  0  0  0  0
   11.2480   -6.0880    1.9070 H   0  0  0  0  0  0  0  0  0  0  0  0
   10.2130   -6.8340    3.1350 H   0  0  0  0  0  0  0  0  0  0  0  0
    9.6630   -5.3860    2.2720 H   0  0  0  0  0  0  0  0  0  0  0  0
    3.3520   -4.8020    2.1900 C   0  0  0  0  0  0  0  0  0  0  0  0
    4.5040   -5.3870    1.2530 C   0  0  1  0  0  0  0  0  0  0  0  0
    3.1340   -3.7870    1.8610 H   0  0  0  0  0  0  0  0  0  0  0  0
    3.7360   -4.7020    3.1990 H   0  0  0  0  0  0  0  0  0  0  0  0
    5.4790   -4.3050    1.0780 C   0  0  0  0  0  0  0  0  0  0  0  0
    5.6800   -3.9110   -0.0570 O   0  0  0  0  0  0  0  0  0  0  0  0
    5.9890   -3.6870    2.0820 N   0  0  0  0  0  0  0  0  0  0  0  0
    4.0910   -5.6440    0.2800 H   0  0  0  0  0  0  0  0  0  0  0  0
    6.6670   -2.4890    2.1010 C   0  0  0  0  0  0  0  0  0  0  0  0
    5.9040   -4.0790    2.9160 H   0  0  0  0  0  0  0  0  0  0  0  0
    8.1290   -2.6690    1.7360 C   0  0  0  0  0  0  0  0  0  0  0  0
    8.2360   -3.3770    0.9200 H   0  0  0  0  0  0  0  0  0  0  0  0
    8.6730   -3.0420    2.5920 H   0  0  0  0  0  0  0  0  0  0  0  0
    8.5580   -1.7090    1.4600 H   0  0  0  0  0  0  0  0  0  0  0  0
    5.9260   -1.3430    1.4060 C   0  0  0  0  0  0  0  0  0  0  0  0
    6.7160   -2.1670    3.1430 H   0  0  0  0  0  0  0  0  0  0  0  0
    5.7740   -0.5160    2.1000 H   0  0  0  0  0  0  0  0  0  0  0  0
    4.9520   -1.6450    1.0280 H   0  0  0  0  0  0  0  0  0  0  0  0
    6.5220   -0.9770    0.5790 H   0  0  0  0  0  0  0  0  0  0  0  0
    1.0110   -5.1360    3.5000 C   0  0  0  0  0  0  0  0  0  0  0  0
    1.9910   -5.5670    2.3220 C   0  0  1  0  0  0  0  0  0  0  0  0
    0.7810   -4.0900    3.3510 H   0  0  0  0  0  0  0  0  0  0  0  0
    0.0670   -5.6560    3.3250 H   0  0  0  0  0  0  0  0  0  0  0  0
    1.4540   -5.6060    0.9550 C   0  0  0  0  0  0  0  0  0  0  0  0
    1.5300   -6.6890    0.4000 O   0  0  0  0  0  0  0  0  0  0  0  0
    1.1060   -4.5930    0.2410 N   0  0  0  0  0  0  0  0  0  0  0  0
    2.1990   -6.5950    2.5840 H   0  0  0  0  0  0  0  0  0  0  0  0
    0.7240   -4.6600   -1.0900 C   0  0  0  0  0  0  0  0  0  0  0  0
    1.2000   -3.7500    0.6180 H   0  0  0  0  0  0  0  0  0  0  0  0
    1.9510   -4.3160   -1.9190 C   0  0  0  0  0  0  0  0  0  0  0  0
    1.7060   -4.3840   -2.9790 H   0  0  0  0  0  0  0  0  0  0  0  0
    2.7370   -5.0340   -1.7020 H   0  0  0  0  0  0  0  0  0  0  0  0
    2.3100   -3.3170   -1.6870 H   0  0  0  0  0  0  0  0  0  0  0  0
   -0.3960   -3.6410   -1.3800 C   0  0  0  0  0  0  0  0  0  0  0  0
    0.3620   -5.6450   -1.3900 H   0  0  0  0  0  0  0  0  0  0  0  0
   -1.3420   -4.1730   -1.4920 H   0  0  0  0  0  0  0  0  0  0  0  0
   -0.2050   -3.1120   -2.3130 H   0  0  0  0  0  0  0  0  0  0  0  0
   -0.5000   -2.8940   -0.6010 H   0  0  0  0  0  0  0  0  0  0  0  0
    0.9120   -6.8440    5.5200 C   0  0  0  0  0  0  0  0  0  0  0  0
    1.3900   -5.3900    5.0440 C   0  0  2  0  0  0  0  0  0  0  0  0
   -0.1620   -6.7620    5.6960 H   0  0  0  0  0  0  0  0  0  0  0  0
    1.0100   -7.4640    4.6250 H   0  0  0  0  0  0  0  0  0  0  0  0
    0.9390   -4.2600    5.9010 C   0  0  0  0  0  0  0  0  0  0  0  0
   -0.2600   -4.0810    6.0580 O   0  0  0  0  0  0  0  0  0  0  0  0
    1.7320   -3.3860    6.4390 N   0  0  0  0  0  0  0  0  0  0  0  0
    2.4590   -5.3480    5.1190 H   0  0  0  0  0  0  0  0  0  0  0  0
    1.3610   -2.3160    7.2630 C   0  0  0  0  0  0  0  0  0  0  0  0
    2.6410   -3.4710    6.2780 H   0  0  0  0  0  0  0  0  0  0  0  0
    1.2110   -1.0620    6.4460 C   0  0  0  0  0  0  0  0  0  0  0  0
    0.7830   -0.2840    7.0730 H   0  0  0  0  0  0  0  0  0  0  0  0
    0.5060   -1.2850    5.6660 H   0  0  0  0  0  0  0  0  0  0  0  0
    2.1750   -0.7510    6.0540 H   0  0  0  0  0  0  0  0  0  0  0  0
    2.3720   -1.9680    8.3720 C   0  0  0  0  0  0  0  0  0  0  0  0
    0.3920   -2.4430    7.7240 H   0  0  0  0  0  0  0  0  0  0  0  0
    2.3690   -0.9060    8.6160 H   0  0  0  0  0  0  0  0  0  0  0  0
    3.3730   -2.2280    8.0840 H   0  0  0  0  0  0  0  0  0  0  0  0
    2.1380   -2.4700    9.3030 H   0  0  0  0  0  0  0  0  0  0  0  0
    0.9000   -7.6560    8.1150 C   0  0  0  0  0  0  0  0  0  0  0  0
    1.5000   -7.7960    6.6740 C   0  0  2  0  0  0  0  0  0  0  0  0
    0.8710   -6.5980    8.2940 H   0  0  0  0  0  0  0  0  0  0  0  0
    1.5960   -8.0780    8.8400 H   0  0  0  0  0  0  0  0  0  0  0  0
    2.9440   -8.0840    6.6240 C   0  0  0  0  0  0  0  0  0  0  0  0
    3.3300   -8.9180    5.8140 O   0  0  0  0  0  0  0  0  0  0  0  0
    3.8880   -7.4830    7.2440 N   0  0  0  0  0  0  0  0  0  0  0  0
    1.1190   -8.7750    6.3970 H   0  0  0  0  0  0  0  0  0  0  0  0
    5.2500   -7.4850    6.9550 C   0  0  0  0  0  0  0  0  0  0  0  0
    3.6260   -6.9450    7.9390 H   0  0  0  0  0  0  0  0  0  0  0  0
    6.0760   -8.1600    8.0190 C   0  0  0  0  0  0  0  0  0  0  0  0
    5.9140   -9.2210    7.9380 H   0  0  0  0  0  0  0  0  0  0  0  0
    5.7840   -7.7960    8.9970 H   0  0  0  0  0  0  0  0  0  0  0  0
    7.1400   -7.9740    7.8660 H   0  0  0  0  0  0  0  0  0  0  0  0
    5.6940   -6.0230    6.9000 C   0  0  0  0  0  0  0  0  0  0  0  0
    5.5240   -7.9680    6.0160 H   0  0  0  0  0  0  0  0  0  0  0  0
    5.1380   -5.4750    6.1440 H   0  0  0  0  0  0  0  0  0  0  0  0
    6.7570   -5.9620    6.6930 H   0  0  0  0  0  0  0  0  0  0  0  0
    5.5430   -5.5440    7.8650 H   0  0  0  0  0  0  0  0  0  0  0  0
   -1.1320   -7.9940    9.8420 C   0  0  0  0  0  0  0  0  0  0  0  0
   -0.5380   -8.2460    8.4070 C   0  0  2  0  0  0  0  0  0  0  0  0
   -0.4350   -8.4050   10.5760 H   0  0  0  0  0  0  0  0  0  0  0  0
   -2.0300   -8.6060    9.9670 H   0  0  0  0  0  0  0  0  0  0  0  0
   -0.6940   -9.6850    8.2740 C   0  0  0  0  0  0  0  0  0  0  0  0
   -1.7790  -10.1170    7.8990 O   0  0  0  0  0  0  0  0  0  0  0  0
    0.1070  -10.5240    8.7980 N   0  0  0  0  0  0  0  0  0  0  0  0
   -1.1910   -7.8210    7.6510 H   0  0  0  0  0  0  0  0  0  0  0  0
    0.0250  -11.8760    8.6350 C   0  0  0  0  0  0  0  0  0  0  0  0
    0.8390  -10.2060    9.2810 H   0  0  0  0  0  0  0  0  0  0  0  0
    0.0340  -12.6040    9.9810 C   0  0  0  0  0  0  0  0  0  0  0  0
   -0.9660  -12.9900   10.1570 H   0  0  0  0  0  0  0  0  0  0  0  0
    0.7220  -13.4460   10.0050 H   0  0  0  0  0  0  0  0  0  0  0  0
    0.2860  -11.9330   10.7970 H   0  0  0  0  0  0  0  0  0  0  0  0
    1.2290  -12.2110    7.7680 C   0  0  0  0  0  0  0  0  0  0  0  0
   -0.8560  -12.2180    8.0900 H   0  0  0  0  0  0  0  0  0  0  0  0
    0.8940  -12.1790    6.7360 H   0  0  0  0  0  0  0  0  0  0  0  0
    2.0410  -11.4970    7.8920 H   0  0  0  0  0  0  0  0  0  0  0  0
    1.6310  -13.1870    8.0000 H   0  0  0  0  0  0  0  0  0  0  0  0
   -2.2860   -5.7920    9.0880 C   0  0  0  0  0  0  0  0  0  0  0  0
   -1.5930   -6.5650   10.2720 C   0  0  2  0  0  0  0  0  0  0  0  0
   -2.5340   -4.7840    9.4070 H   0  0  0  0  0  0  0  0  0  0  0  0
   -1.5800   -5.6670    8.2680 H   0  0  0  0  0  0  0  0  0  0  0  0
   -0.5140   -5.8920   11.0010 C   0  0  0  0  0  0  0  0  0  0  0  0
    0.6390   -6.2750   10.8420 O   0  0  0  0  0  0  0  0  0  0  0  0
   -0.4930   -4.8720   11.7730 N   0  0  0  0  0  0  0  0  0  0  0  0
   -2.3540   -6.7310   11.0310 H   0  0  0  0  0  0  0  0  0  0  0  0
   -1.5650   -4.1920   12.2760 C   0  0  0  0  0  0  0  0  0  0  0  0
    0.3390   -4.6140   12.1310 H   0  0  0  0  0  0  0  0  0  0  0  0
   -1.0870   -2.8280   12.7790 C   0  0  0  0  0  0  0  0  0  0  0  0
   -0.5860   -2.2870   11.9780 H   0  0  0  0  0  0  0  0  0  0  0  0
   -0.3960   -2.9340   13.6170 H   0  0  0  0  0  0  0  0  0  0  0  0
   -1.9450   -2.2470   13.1170 H   0  0  0  0  0  0  0  0  0  0  0  0
   -2.0260   -5.0090   13.4680 C   0  0  0  0  0  0  0  0  0  0  0  0
   -2.3700   -4.0550   11.5570 H   0  0  0  0  0  0  0  0  0  0  0  0
   -2.7140   -4.4180   14.0630 H   0  0  0  0  0  0  0  0  0  0  0  0
   -2.5350   -5.9120   13.1500 H   0  0  0  0  0  0  0  0  0  0  0  0
   -1.1710   -5.2840   14.0820 H   0  0  0  0  0  0  0  0  0  0  0  0
   -4.1010   -6.0400    7.1510 C   0  0  0  0  0  0  0  0  0  0  0  0
   -3.5860   -6.5010    8.5540 C   0  0  2  0  0  0  0  0  0  0  0  0
   -3.2190   -5.8950    6.5250 H   0  0  0  0  0  0  0  0  0  0  0  0
   -4.5690   -5.0720    7.2510 H   0  0  0  0  0  0  0  0  0  0  0  0
   -4.6030   -6.4540    9.5870 C   0  0  0  0  0  0  0  0  0  0  0  0
   -4.8700   -7.5150   10.1190 O   0  0  0  0  0  0  0  0  0  0  0  0
   -5.1580   -5.3810    9.9920 N   0  0  0  0  0  0  0  0  0  0  0  0
   -3.3430   -7.5480    8.4020 H   0  0  0  0  0  0  0  0  0  0  0  0
   -6.1070   -5.2970   10.9740 C   0  0  0  0  0  0  0  0  0  0  0  0
   -4.9280   -4.5900    9.5730 H   0  0  0  0  0  0  0  0  0  0  0  0
   -7.3000   -4.5400   10.4110 C   0  0  0  0  0  0  0  0  0  0  0  0
   -8.0340   -4.4080   11.1940 H   0  0  0  0  0  0  0  0  0  0  0  0
   -7.7620   -5.1110    9.6170 H   0  0  0  0  0  0  0  0  0  0  0  0
   -7.0150   -3.5660   10.0250 H   0  0  0  0  0  0  0  0  0  0  0  0
   -5.5000   -4.4870   12.1170 C   0  0  0  0  0  0  0  0  0  0  0  0
   -6.4650   -6.2540   11.3510 H   0  0  0  0  0  0  0  0  0  0  0  0
   -6.2640   -4.2390   12.8530 H   0  0  0  0  0  0  0  0  0  0  0  0
   -5.0250   -3.5820   11.7500 H   0  0  0  0  0  0  0  0  0  0  0  0
   -4.7420   -5.0930   12.5940 H   0  0  0  0  0  0  0  0  0  0  0  0
   -4.9280   -6.9730    4.8600 C   0  0  0  0  0  0  0  0  0  0  0  0
   -5.0900   -7.0250    6.4080 C   0  0  2  0  0  0  0  0  0  0  0  0
   -5.4280   -7.8350    4.4150 H   0  0  0  0  0  0  0  0  0  0  0  0
   -3.8650   -7.1650    4.7150 H   0  0  0  0  0  0  0  0  0  0  0  0
   -6.4890   -6.9460    6.8110 C   0  0  0  0  0  0  0  0  0  0  0  0
   -6.7650   -6.1820    7.7080 O   0  0  0  0  0  0  0  0  0  0  0  0
   -7.4710   -7.5920    6.3080 N   0  0  0  0  0  0  0  0  0  0  0  0
   -4.7640   -8.0270    6.6760 H   0  0  0  0  0  0  0  0  0  0  0  0
   -8.7940   -7.4420    6.6690 C   0  0  0  0  0  0  0  0  0  0  0  0
   -7.2820   -8.2470    5.6830 H   0  0  0  0  0  0  0  0  0  0  0  0
   -9.2070   -8.6750    7.4600 C   0  0  0  0  0  0  0  0  0  0  0  0
   -8.9530   -9.5880    6.9250 H   0  0  0  0  0  0  0  0  0  0  0  0
  -10.2780   -8.6530    7.6490 H   0  0  0  0  0  0  0  0  0  0  0  0
   -8.7060   -8.6620    8.4150 H   0  0  0  0  0  0  0  0  0  0  0  0
   -9.6370   -7.3950    5.4070 C   0  0  0  0  0  0  0  0  0  0  0  0
   -9.0250   -6.5440    7.2480 H   0  0  0  0  0  0  0  0  0  0  0  0
  -10.6680   -7.2190    5.6980 H   0  0  0  0  0  0  0  0  0  0  0  0
   -9.5710   -8.3240    4.8530 H   0  0  0  0  0  0  0  0  0  0  0  0
   -9.3170   -6.5720    4.7860 H   0  0  0  0  0  0  0  0  0  0  0  0
   -6.8360   -5.4280    3.7900 C   0  0  0  0  0  0  0  0  0  0  0  0
   -5.3120   -5.6940    4.0380 C   0  0  2  0  0  0  0  0  0  0  0  0
   -7.2800   -5.1300    4.7330 H   0  0  0  0  0  0  0  0  0  0  0  0
   -7.2710   -6.3950    3.5370 H   0  0  0  0  0  0  0  0  0  0  0  0
   -4.5630   -5.8580    2.8080 C   0  0  0  0  0  0  0  0  0  0  0  0
   -3.4940   -5.2920    2.7980 O   0  0  0  0  0  0  0  0  0  0  0  0
   -4.9270   -6.5540    1.8010 N   0  0  0  0  0  0  0  0  0  0  0  0
   -4.9170   -4.8250    4.5690 H   0  0  0  0  0  0  0  0  0  0  0  0
   -4.2340   -6.6890    0.6210 C   0  0  0  0  0  0  0  0  0  0  0  0
   -5.7240   -7.0100    1.8570 H   0  0  0  0  0  0  0  0  0  0  0  0
   -5.0860   -6.0810   -0.4860 C   0  0  0  0  0  0  0  0  0  0  0  0
   -5.2740   -5.0330   -0.2670 H   0  0  0  0  0  0  0  0  0  0  0  0
   -6.0270   -6.6130   -0.5860 H   0  0  0  0  0  0  0  0  0  0  0  0
   -4.5400   -6.1390   -1.4270 H   0  0  0  0  0  0  0  0  0  0  0  0
   -4.0430   -8.1820    0.3580 C   0  0  0  0  0  0  0  0  0  0  0  0
   -3.2790   -6.1840    0.5900 H   0  0  0  0  0  0  0  0  0  0  0  0
   -3.7220   -8.3400   -0.6700 H   0  0  0  0  0  0  0  0  0  0  0  0
   -4.9610   -8.7270    0.5140 H   0  0  0  0  0  0  0  0  0  0  0  0
   -3.2870   -8.5870    1.0230 H   0  0  0  0  0  0  0  0  0  0  0  0
   -7.1450   -2.8720    3.0160 C   0  0  0  0  0  0  0  0  0  0  0  0
   -7.3150   -4.3980    2.6950 C   0  0  2  0  0  0  0  0  0  0  0  0
   -6.1280   -2.7020    3.3620 H   0  0  0  0  0  0  0  0  0  0  0  0
   -7.8110   -2.6340    3.8480 H   0  0  0  0  0  0  0  0  0  0  0  0
   -8.7300   -4.6540    2.4370 C   0  0  0  0  0  0  0  0  0  0  0  0
   -9.5180   -4.5540    3.3620 O   0  0  0  0  0  0  0  0  0  0  0  0
   -9.1950   -4.9920    1.2940 N   0  0  0  0  0  0  0  0  0  0  0  0
   -6.7550   -4.6040    1.7880 H   0  0  0  0  0  0  0  0  0  0  0  0
  -10.5330   -5.2100    1.0570 C   0  0  0  0  0  0  0  0  0  0  0  0
   -8.6000   -5.0520    0.5760 H   0  0  0  0  0  0  0  0  0  0  0  0
  -10.8660   -6.6550    1.4300 C   0  0  0  0  0  0  0  0  0  0  0  0
  -10.5760   -7.3570    0.6500 H   0  0  0  0  0  0  0  0  0  0  0  0
  -11.9430   -6.7190    1.5670 H   0  0  0  0  0  0  0  0  0  0  0  0
  -10.3990   -6.9340    2.3730 H   0  0  0  0  0  0  0  0  0  0  0  0
  -10.8000   -4.9910   -0.4310 C   0  0  0  0  0  0  0  0  0  0  0  0
  -11.1770   -4.5210    1.6110 H   0  0  0  0  0  0  0  0  0  0  0  0
  -10.2410   -5.6960   -1.0380 H   0  0  0  0  0  0  0  0  0  0  0  0
  -10.5110   -3.9810   -0.7080 H   0  0  0  0  0  0  0  0  0  0  0  0
  -11.8580   -5.1330   -0.6320 H   0  0  0  0  0  0  0  0  0  0  0  0
   -6.3140   -1.8160    0.7560 C   0  0  0  0  0  0  0  0  0  0  0  0
   -7.4570   -1.8820    1.8260 C   0  0  2  0  0  0  0  0  0  0  0  0
   -5.9300   -2.8190    0.6110 H   0  0  0  0  0  0  0  0  0  0  0  0
   -5.5080   -1.2320    1.1720 H   0  0  0  0  0  0  0  0  0  0  0  0
   -7.8660   -0.5420    2.2650 C   0  0  0  0  0  0  0  0  0  0  0  0
   -8.8590   -0.0680    1.7290 O   0  0  0  0  0  0  0  0  0  0  0  0
   -7.2900    0.1690    3.1620 N   0  0  0  0  0  0  0  0  0  0  0  0
   -8.3330   -2.2870    1.3230 H   0  0  0  0  0  0  0  0  0  0  0  0
   -7.7120    1.4230    3.5700 C   0  0  0  0  0  0  0  0  0  0  0  0
   -6.5120   -0.1730    3.5360 H   0  0  0  0  0  0  0  0  0  0  0  0
   -6.5450    2.3600    3.8960 C   0  0  0  0  0  0  0  0  0  0  0  0
   -5.6590    1.8190    4.2020 H   0  0  0  0  0  0  0  0  0  0  0  0
   -6.8150    3.0470    4.6970 H   0  0  0  0  0  0  0  0  0  0  0  0
   -6.3120    2.9510    3.0130 H   0  0  0  0  0  0  0  0  0  0  0  0
   -8.5910    1.2500    4.7990 C   0  0  0  0  0  0  0  0  0  0  0  0
   -8.3140    1.9340    2.8270 H   0  0  0  0  0  0  0  0  0  0  0  0
   -7.9970    1.1720    5.6990 H   0  0  0  0  0  0  0  0  0  0  0  0
   -9.2400    0.3810    4.6960 H   0  0  0  0  0  0  0  0  0  0  0  0
   -9.2130    2.1370    4.8950 H   0  0  0  0  0  0  0  0  0  0  0  0
   -5.4890   -1.2410   -1.7170 C   0  0  0  0  0  0  0  0  0  0  0  0
   -6.6660   -1.2760   -0.6680 C   0  0  1  0  0  0  0  0  0  0  0  0
   -5.9760   -1.1850   -2.6870 H   0  0  0  0  0  0  0  0  0  0  0  0
   -4.9920   -2.2150   -1.6950 H   0  0  0  0  0  0  0  0  0  0  0  0
   -7.6680   -2.1740   -1.2640 C   0  0  0  0  0  0  0  0  0  0  0  0
   -7.5360   -3.3800   -1.1140 O   0  0  0  0  0  0  0  0  0  0  0  0
   -8.6630   -1.9020   -2.0190 N   0  0  0  0  0  0  0  0  0  0  0  0
   -7.0510   -0.2690   -0.5300 H   0  0  0  0  0  0  0  0  0  0  0  0
   -9.0840   -0.6730   -2.4310 C   0  0  0  0  0  0  0  0  0  0  0  0
   -9.1360   -2.6380   -2.3500 H   0  0  0  0  0  0  0  0  0  0  0  0
  -10.5060   -0.5160   -1.9120 C   0  0  0  0  0  0  0  0  0  0  0  0
  -10.9700    0.3550   -2.3640 H   0  0  0  0  0  0  0  0  0  0  0  0
  -10.4680   -0.3710   -0.8310 H   0  0  0  0  0  0  0  0  0  0  0  0
  -11.1100   -1.3910   -2.1430 H   0  0  0  0  0  0  0  0  0  0  0  0
   -9.0600   -0.6570   -3.9510 C   0  0  0  0  0  0  0  0  0  0  0  0
   -8.4840    0.1570   -2.0820 H   0  0  0  0  0  0  0  0  0  0  0  0
   -8.0490   -0.8530   -4.2970 H   0  0  0  0  0  0  0  0  0  0  0  0
   -9.3650    0.3230   -4.3150 H   0  0  0  0  0  0  0  0  0  0  0  0
   -9.7170   -1.4190   -4.3580 H   0  0  0  0  0  0  0  0  0  0  0  0
   -3.1500   -0.5050   -0.9060 C   0  0  0  0  0  0  0  0  0  0  0  0
   -4.3840   -0.1210   -1.7960 C   0  0  2  0  0  0  0  0  0  0  0  0
   -2.7110   -1.4130   -1.3260 H   0  0  0  0  0  0  0  0  0  0  0  0
   -3.5410   -0.7750    0.0730 H   0  0  0  0  0  0  0  0  0  0  0  0
   -4.8960    1.2420   -1.6530 C   0  0  0  0  0  0  0  0  0  0  0  0
   -4.4730    1.9400   -0.7550 O   0  0  0  0  0  0  0  0  0  0  0  0
   -5.7030    1.8520   -2.4280 N   0  0  0  0  0  0  0  0  0  0  0  0
   -3.9990   -0.1630   -2.8170 H   0  0  0  0  0  0  0  0  0  0  0  0
   -6.2060    3.1250   -2.1840 C   0  0  0  0  0  0  0  0  0  0  0  0
   -5.9680    1.4210   -3.2100 H   0  0  0  0  0  0  0  0  0  0  0  0
   -7.7050    3.0420   -2.3960 C   0  0  0  0  0  0  0  0  0  0  0  0
   -7.9500    2.6690   -3.3900 H   0  0  0  0  0  0  0  0  0  0  0  0
   -8.1410    4.0290   -2.2720 H   0  0  0  0  0  0  0  0  0  0  0  0
   -8.1100    2.3780   -1.6400 H   0  0  0  0  0  0  0  0  0  0  0  0
   -5.5780    4.1500   -3.1170 C   0  0  0  0  0  0  0  0  0  0  0  0
   -6.0800    3.4960   -1.1620 H   0  0  0  0  0  0  0  0  0  0  0  0
   -6.0170    4.0690   -4.1050 H   0  0  0  0  0  0  0  0  0  0  0  0
   -4.5030    3.9940   -3.1810 H   0  0  0  0  0  0  0  0  0  0  0  0
   -5.7680    5.1540   -2.7350 H   0  0  0  0  0  0  0  0  0  0  0  0
   -1.2050    0.9500   -1.9750 C   0  0  0  0  0  0  0  0  0  0  0  0
   -1.9710    0.5100   -0.6870 C   0  0  2  0  0  0  0  0  0  0  0  0
   -0.5030    0.1620   -2.2400 H   0  0  0  0  0  0  0  0  0  0  0  0
   -1.9060    1.0110   -2.8080 H   0  0  0  0  0  0  0  0  0  0  0  0
   -1.1430    0.0270    0.4070 C   0  0  0  0  0  0  0  0  0  0  0  0
   -0.0920   -0.5410    0.1840 O   0  0  0  0  0  0  0  0  0  0  0  0
   -1.4990    0.1950    1.6220 N   0  0  0  0  0  0  0  0  0  0  0  0
   -2.3430    1.4340   -0.2800 H   0  0  0  0  0  0  0  0  0  0  0  0
   -0.7540   -0.1880    2.7070 C   0  0  0  0  0  0  0  0  0  0  0  0
   -2.3510    0.5350    1.7780 H   0  0  0  0  0  0  0  0  0  0  0  0
   -1.0330   -1.6650    2.9250 C   0  0  0  0  0  0  0  0  0  0  0  0
   -0.7690   -2.0010    3.9220 H   0  0  0  0  0  0  0  0  0  0  0  0
   -2.0720   -1.8370    2.7810 H   0  0  0  0  0  0  0  0  0  0  0  0
   -0.4730   -2.2470    2.1990 H   0  0  0  0  0  0  0  0  0  0  0  0
   -1.2380    0.6110    3.9160 C   0  0  0  0  0  0  0  0  0  0  0  0
    0.3110    0.0120    2.5770 H   0  0  0  0  0  0  0  0  0  0  0  0
   -0.7240    0.2750    4.8010 H   0  0  0  0  0  0  0  0  0  0  0  0
   -2.3060    0.4940    4.0840 H   0  0  0  0  0  0  0  0  0  0  0  0
   -0.9780    1.6590    3.7860 H   0  0  0  0  0  0  0  0  0  0  0  0
   -1.4850    3.5200   -2.2130 C   0  0  0  0  0  0  0  0  0  0  0  0
   -0.4860    2.3470   -1.8540 C   0  0  2  0  0  0  0  0  0  0  0  0
   -2.4320    3.2830   -1.7340 H   0  0  0  0  0  0  0  0  0  0  0  0
   -1.6960    3.4840   -3.2850 H   0  0  0  0  0  0  0  0  0  0  0  0
    0.7190    2.3340   -2.6870 C   0  0  0  0  0  0  0  0  0  0  0  0
    0.6950    2.9010   -3.7660 O   0  0  0  0  0  0  0  0  0  0  0  0
    1.8440    1.7640   -2.4880 N   0  0  0  0  0  0  0  0  0  0  0  0
   -0.1790    2.4880   -0.8220 H   0  0  0  0  0  0  0  0  0  0  0  0
    2.2400    1.0130   -1.4120 C   0  0  0  0  0  0  0  0  0  0  0  0
    2.5030    1.8640   -3.1480 H   0  0  0  0  0  0  0  0  0  0  0  0
    3.5270    1.6110   -0.8800 C   0  0  0  0  0  0  0  0  0  0  0  0
    3.3640    2.6360   -0.5500 H   0  0  0  0  0  0  0  0  0  0  0  0
    4.3100    1.5890   -1.6360 H   0  0  0  0  0  0  0  0  0  0  0  0
    3.8510    1.0090   -0.0310 H   0  0  0  0  0  0  0  0  0  0  0  0
    2.4880   -0.3990   -1.9340 C   0  0  0  0  0  0  0  0  0  0  0  0
    1.5320    1.0120   -0.5950 H   0  0  0  0  0  0  0  0  0  0  0  0
    2.9970   -0.9850   -1.1750 H   0  0  0  0  0  0  0  0  0  0  0  0
    3.1240   -0.3830   -2.8160 H   0  0  0  0  0  0  0  0  0  0  0  0
    1.5520   -0.8930   -2.1720 H   0  0  0  0  0  0  0  0  0  0  0  0
   -0.1830    5.7380   -2.7380 C   0  0  0  0  0  0  0  0  0  0  0  0
   -1.2150    5.0260   -1.8310 C   0  0  2  0  0  0  0  0  0  0  0  0
    0.7250    5.1380   -2.6870 H   0  0  0  0  0  0  0  0  0  0  0  0
   -0.5670    5.6690   -3.7610 H   0  0  0  0  0  0  0  0  0  0  0  0
   -0.9820    5.2410   -0.4140 C   0  0  0  0  0  0  0  0  0  0  0  0
   -1.9240    5.6720    0.2290 O   0  0  0  0  0  0  0  0  0  0  0  0
    0.1010    4.9500    0.1940 N   0  0  0  0  0  0  0  0  0  0  0  0
   -2.1590    5.5290   -2.0630 H   0  0  0  0  0  0  0  0  0  0  0  0
    0.3030    5.0850    1.5510 C   0  0  0  0  0  0  0  0  0  0  0  0
    0.8200    4.6220   -0.2940 H   0  0  0  0  0  0  0  0  0  0  0  0
    1.5600    5.9210    1.7570 C   0  0  0  0  0  0  0  0  0  0  0  0
    1.4120    6.9110    1.3270 H   0  0  0  0  0  0  0  0  0  0  0  0
    2.4310    5.4490    1.3000 H   0  0  0  0  0  0  0  0  0  0  0  0
    1.7430    6.0290    2.8270 H   0  0  0  0  0  0  0  0  0  0  0  0
    0.4870    3.6690    2.0850 C   0  0  0  0  0  0  0  0  0  0  0  0
   -0.5120    5.5580    2.1010 H   0  0  0  0  0  0  0  0  0  0  0  0
   -0.3960    3.0780    1.8570 H   0  0  0  0  0  0  0  0  0  0  0  0
    0.6180    3.7100    3.1670 H   0  0  0  0  0  0  0  0  0  0  0  0
    1.3660    3.1930    1.6500 H   0  0  0  0  0  0  0  0  0  0  0  0
   -0.8830    8.3110   -2.6930 C   0  0  0  0  0  0  0  0  0  0  0  0
    0.2340    7.2260   -2.4490 C   0  0  2  0  0  0  0  0  0  0  0  0
   -1.2250    8.2060   -3.7240 H   0  0  0  0  0  0  0  0  0  0  0  0
   -1.7300    8.0400   -2.0600 H   0  0  0  0  0  0  0  0  0  0  0  0
    1.3630    7.3800   -3.3520 C   0  0  0  0  0  0  0  0  0  0  0  0
    1.1310    7.3760   -4.5520 O   0  0  0  0  0  0  0  0  0  0  0  0
    2.6150    7.4250   -3.1230 N   0  0  0  0  0  0  0  0  0  0  0  0
    0.5510    7.2910   -1.4140 H   0  0  0  0  0  0  0  0  0  0  0  0
    3.3180    7.4450   -1.9540 C   0  0  0  0  0  0  0  0  0  0  0  0
    3.1450    7.4240   -3.8670 H   0  0  0  0  0  0  0  0  0  0  0  0
    4.3450    8.5710   -2.1340 C   0  0  0  0  0  0  0  0  0  0  0  0
    4.9860    8.6290   -1.2570 H   0  0  0  0  0  0  0  0  0  0  0  0
    3.8240    9.5210   -2.2340 H   0  0  0  0  0  0  0  0  0  0  0  0
    4.9720    8.4230   -3.0120 H   0  0  0  0  0  0  0  0  0  0  0  0
    4.0220    6.0930   -1.8580 C   0  0  0  0  0  0  0  0  0  0  0  0
    2.7090    7.6200   -1.0700 H   0  0  0  0  0  0  0  0  0  0  0  0
    3.2840    5.2970   -1.7780 H   0  0  0  0  0  0  0  0  0  0  0  0
    4.6500    6.0640   -0.9680 H   0  0  0  0  0  0  0  0  0  0  0  0
    4.6440    5.9100   -2.7340 H   0  0  0  0  0  0  0  0  0  0  0  0
    0.4840   10.4270   -3.4050 C   0  0  0  0  0  0  0  0  0  0  0  0
   -0.6140    9.8510   -2.4470 C   0  0  2  0  0  0  0  0  0  0  0  0
    0.2440   10.0720   -4.4000 H   0  0  0  0  0  0  0  0  0  0  0  0
    1.4270    9.9730   -3.1140 H   0  0  0  0  0  0  0  0  0  0  0  0
   -0.3590   10.1200   -1.0330 C   0  0  0  0  0  0  0  0  0  0  0  0
    0.7080    9.7190   -0.5930 O   0  0  0  0  0  0  0  0  0  0  0  0
   -1.0580   10.7110   -0.1330 N   0  0  0  0  0  0  0  0  0  0  0  0
   -1.5340   10.3430   -2.7300 H   0  0  0  0  0  0  0  0  0  0  0  0
   -2.2690   11.3490   -0.2350 C   0  0  0  0  0  0  0  0  0  0  0  0
   -0.7150   10.6810    0.7300 H   0  0  0  0  0  0  0  0  0  0  0  0
   -2.2590   12.5470    0.7310 C   0  0  0  0  0  0  0  0  0  0  0  0
   -2.5970   12.2460    1.7180 H   0  0  0  0  0  0  0  0  0  0  0  0
   -2.9410   13.3170    0.3690 H   0  0  0  0  0  0  0  0  0  0  0  0
   -1.2610   12.9610    0.8680 H   0  0  0  0  0  0  0  0  0  0  0  0
   -3.3510   10.3730    0.2050 C   0  0  0  0  0  0  0  0  0  0  0  0
   -2.4690   11.7190   -1.2390 H   0  0  0  0  0  0  0  0  0  0  0  0
   -3.3740    9.5400   -0.4890 H   0  0  0  0  0  0  0  0  0  0  0  0
   -4.3190   10.8770    0.1890 H   0  0  0  0  0  0  0  0  0  0  0  0
   -3.1580    9.9950    1.2110 H   0  0  0  0  0  0  0  0  0  0  0  0
    2.1580   12.2510   -4.1440 C   0  0  0  0  0  0  0  0  0  0  0  0
    0.7610   11.9680   -3.4940 C   0  0  1  0  0  0  0  0  0  0  0  0
    2.8980   11.7400   -3.5270 H   0  0  0  0  0  0  0  0  0  0  0  0
    2.3760   13.3090   -4.0230 H   0  0  0  0  0  0  0  0  0  0  0  0
   -0.2460   12.7850   -4.1640 C   0  0  0  0  0  0  0  0  0  0  0  0
   -1.0370   12.2360   -4.9040 O   0  0  0  0  0  0  0  0  0  0  0  0
   -0.2820   14.0600   -4.0330 N   0  0  0  0  0  0  0  0  0  0  0  0
    0.8230   12.3160   -2.4620 H   0  0  0  0  0  0  0  0  0  0  0  0
   -1.1690   14.9000   -4.6710 C   0  0  0  0  0  0  0  0  0  0  0  0
    0.3620   14.4650   -3.4960 H   0  0  0  0  0  0  0  0  0  0  0  0
   -0.3760   16.0880   -5.2080 C   0  0  0  0  0  0  0  0  0  0  0  0
   -1.0470   16.7780   -5.7170 H   0  0  0  0  0  0  0  0  0  0  0  0
    0.3730   15.7380   -5.9140 H   0  0  0  0  0  0  0  0  0  0  0  0
    0.1210   16.6250   -4.4020 H   0  0  0  0  0  0  0  0  0  0  0  0
   -2.1540   15.4200   -3.6330 C   0  0  0  0  0  0  0  0  0  0  0  0
   -1.7160   14.4390   -5.4920 H   0  0  0  0  0  0  0  0  0  0  0  0
   -1.6600   16.0230   -2.8720 H   0  0  0  0  0  0  0  0  0  0  0  0
   -2.6830   14.5830   -3.1810 H   0  0  0  0  0  0  0  0  0  0  0  0
   -2.8840   16.0490   -4.1440 H   0  0  0  0  0  0  0  0  0  0  0  0
    3.6550   10.9800   -5.8290 C   0  0  0  0  0  0  0  0  0  0  0  0
    2.3680   11.8460   -5.6490 C   0  0  2  0  0  0  0  0  0  0  0  0
    4.5070   11.5490   -5.4660 H   0  0  0  0  0  0  0  0  0  0  0  0
    3.5520   10.1150   -5.1700 H   0  0  0  0  0  0  0  0  0  0  0  0
    2.2710   12.9640   -6.5930 C   0  0  0  0  0  0  0  0  0  0  0  0
    1.4220   12.8740   -7.4660 O   0  0  0  0  0  0  0  0  0  0  0  0
    2.9840   14.0190   -6.7260 N   0  0  0  0  0  0  0  0  0  0  0  0
    1.5470   11.1790   -5.9040 H   0  0  0  0  0  0  0  0  0  0  0  0
    4.0690   14.4400   -6.0070 C   0  0  0  0  0  0  0  0  0  0  0  0
    2.7000   14.6130   -7.3930 H   0  0  0  0  0  0  0  0  0  0  0  0
    3.7100   15.7700   -5.3570 C   0  0  0  0  0  0  0  0  0  0  0  0
    2.7810   15.6780   -4.8000 H   0  0  0  0  0  0  0  0  0  0  0  0
    3.5790   16.5390   -6.1160 H   0  0  0  0  0  0  0  0  0  0  0  0
    4.5090   16.0780   -4.6810 H   0  0  0  0  0  0  0  0  0  0  0  0
    5.2070   14.6100   -7.0130 C   0  0  0  0  0  0  0  0  0  0  0  0
    4.3720   13.7550   -5.2220 H   0  0  0  0  0  0  0  0  0  0  0  0
    4.9190   15.2680   -7.8340 H   0  0  0  0  0  0  0  0  0  0  0  0
    5.5050   13.6400   -7.4080 H   0  0  0  0  0  0  0  0  0  0  0  0
    6.0660   15.0550   -6.5190 H   0  0  0  0  0  0  0  0  0  0  0  0
    2.9180    9.4190   -7.7400 C   0  0  0  0  0  0  0  0  0  0  0  0
    3.9950   10.4530   -7.2640 C   0  0  2  0  0  0  0  0  0  0  0  0
    1.9950    9.9800   -7.8900 H   0  0  0  0  0  0  0  0  0  0  0  0
    2.7370    8.7140   -6.9330 H   0  0  0  0  0  0  0  0  0  0  0  0
    5.4020   10.0360   -7.3920 C   0  0  0  0  0  0  0  0  0  0  0  0
    5.9290   10.1980   -8.4830 O   0  0  0  0  0  0  0  0  0  0  0  0
    6.1370    9.5890   -6.4430 N   0  0  0  0  0  0  0  0  0  0  0  0
    3.9100   11.3160   -7.9220 H   0  0  0  0  0  0  0  0  0  0  0  0
    7.4520    9.1960   -6.5670 C   0  0  0  0  0  0  0  0  0  0  0  0
    5.7390    9.3950   -5.6310 H   0  0  0  0  0  0  0  0  0  0  0  0
    7.4440    7.6880   -6.7870 C   0  0  0  0  0  0  0  0  0  0  0  0
    8.4470    7.3320   -7.0120 H   0  0  0  0  0  0  0  0  0  0  0  0
    6.7820    7.4450   -7.6110 H   0  0  0  0  0  0  0  0  0  0  0  0
    7.0770    7.1900   -5.8970 H   0  0  0  0  0  0  0  0  0  0  0  0
    8.1890    9.4820   -5.2580 C   0  0  0  0  0  0  0  0  0  0  0  0
    7.9940    9.6940   -7.3710 H   0  0  0  0  0  0  0  0  0  0  0  0
    9.1890    9.0550   -5.3070 H   0  0  0  0  0  0  0  0  0  0  0  0
    7.6700    9.0480   -4.4080 H   0  0  0  0  0  0  0  0  0  0  0  0
    8.2900   10.5500   -5.1070 H   0  0  0  0  0  0  0  0  0  0  0  0
    3.1660    9.4620  -10.3210 C   0  0  0  0  0  0  0  0  0  0  0  0
    3.1640    8.5870   -9.0350 C   0  0  2  0  0  0  0  0  0  0  0  0
    2.1480    9.7510  -10.5880 H   0  0  0  0  0  0  0  0  0  0  0  0
    3.6800   10.3880  -10.0760 H   0  0  0  0  0  0  0  0  0  0  0  0
    2.1840    7.5220   -9.2260 C   0  0  0  0  0  0  0  0  0  0  0  0
    2.5970    6.3870   -9.4050 O   0  0  0  0  0  0  0  0  0  0  0  0
    0.9250    7.7360   -9.2990 N   0  0  0  0  0  0  0  0  0  0  0  0
    4.1430    8.1190   -8.9170 H   0  0  0  0  0  0  0  0  0  0  0  0
   -0.0100    6.8140   -9.6960 C   0  0  0  0  0  0  0  0  0  0  0  0
    0.6080    8.6010   -9.1610 H   0  0  0  0  0  0  0  0  0  0  0  0
   -0.5790    7.3790  -10.9930 C   0  0  0  0  0  0  0  0  0  0  0  0
   -1.3210    6.7120  -11.4130 H   0  0  0  0  0  0  0  0  0  0  0  0
    0.2270    7.4990  -11.7080 H   0  0  0  0  0  0  0  0  0  0  0  0
   -1.0470    8.3490  -10.8290 H   0  0  0  0  0  0  0  0  0  0  0  0
   -1.1010    6.7080   -8.6380 C   0  0  0  0  0  0  0  0  0  0  0  0
    0.3860    5.8180   -9.8790 H   0  0  0  0  0  0  0  0  0  0  0  0
   -1.5790    7.6720   -8.4590 H   0  0  0  0  0  0  0  0  0  0  0  0
   -0.6740    6.3110   -7.7210 H   0  0  0  0  0  0  0  0  0  0  0  0
   -1.8670    6.0130   -8.9840 H   0  0  0  0  0  0  0  0  0  0  0  0
    4.9380    9.7800  -12.1000 C   0  0  0  0  0  0  0  0  0  0  0  0
    3.8740    8.7920  -11.5410 C   0  0  2  0  0  0  0  0  0  0  0  0
    5.6800    9.9590  -11.3180 H   0  0  0  0  0  0  0  0  0  0  0  0
    4.4530   10.7290  -12.3160 H   0  0  0  0  0  0  0  0  0  0  0  0
    2.9600    8.2390  -12.5480 C   0  0  0  0  0  0  0  0  0  0  0  0
    2.9760    7.0270  -12.6890 O   0  0  0  0  0  0  0  0  0  0  0  0
    2.2050    8.9660  -13.2830 N   0  0  0  0  0  0  0  0  0  0  0  0
    4.4320    7.9440  -11.1550 H   0  0  0  0  0  0  0  0  0  0  0  0
    1.2910    8.6510  -14.2750 C   0  0  0  0  0  0  0  0  0  0  0  0
    2.2430    9.8720  -13.1110 H   0  0  0  0  0  0  0  0  0  0  0  0
    1.0810    7.1920  -14.6820 C   0  0  0  0  0  0  0  0  0  0  0  0
    0.3220    7.1260  -15.4520 H   0  0  0  0  0  0  0  0  0  0  0  0
    0.7140    6.6280  -13.8330 H   0  0  0  0  0  0  0  0  0  0  0  0
    2.0040    6.7480  -15.0520 H   0  0  0  0  0  0  0  0  0  0  0  0
    1.7220    9.4190  -15.5270 C   0  0  0  0  0  0  0  0  0  0  0  0
    0.3180    9.0390  -13.9610 H   0  0  0  0  0  0  0  0  0  0  0  0
    2.6870    9.0590  -15.8820 H   0  0  0  0  0  0  0  0  0  0  0  0
    1.7910   10.4840  -15.3120 H   0  0  0  0  0  0  0  0  0  0  0  0
    0.9800    9.3010  -16.3140 H   0  0  0  0  0  0  0  0  0  0  0  0
    6.5740    8.1220  -13.0690 C   0  0  0  0  0  0  0  0  0  0  0  0
    5.6870    9.3340  -13.3740 C   0  0  2  0  0  0  0  0  0  0  0  0
    5.9600    7.2830  -12.7510 H   0  0  0  0  0  0  0  0  0  0  0  0
    7.0980    7.8160  -13.9680 H   0  0  0  0  0  0  0  0  0  0  0  0
    6.5130   10.3820  -13.9410 C   0  0  0  0  0  0  0  0  0  0  0  0
    6.7310   11.4160  -13.3210 O   0  0  0  0  0  0  0  0  0  0  0  0
    6.9670   10.2670  -15.1270 N   0  0  0  0  0  0  0  0  0  0  0  0
    4.9490    9.0640  -14.1300 H   0  0  0  0  0  0  0  0  0  0  0  0
    7.6610   11.2240  -15.8100 C   0  0  0  0  0  0  0  0  0  0  0  0
    6.7480    9.4970  -15.6080 H   0  0  0  0  0  0  0  0  0  0  0  0
    6.7040   11.7370  -16.8860 C   0  0  0  0  0  0  0  0  0  0  0  0
    5.6880   11.3690  -16.7430 H   0  0  0  0  0  0  0  0  0  0  0  0
    7.0450   11.4450  -17.8770 H   0  0  0  0  0  0  0  0  0  0  0  0
    6.6680   12.8220  -16.8280 H   0  0  0  0  0  0  0  0  0  0  0  0
    8.8920   10.5460  -16.3930 C   0  0  0  0  0  0  0  0  0  0  0  0
    8.0190   12.0530  -15.2050 H   0  0  0  0  0  0  0  0  0  0  0  0
    9.4960   11.2970  -16.8950 H   0  0  0  0  0  0  0  0  0  0  0  0
    8.6280    9.7610  -17.1020 H   0  0  0  0  0  0  0  0  0  0  0  0
    9.4800   10.1230  -15.5850 H   0  0  0  0  0  0  0  0  0  0  0  0
    3.0210  -11.8740    3.5150 H   0  0  0  0  0  0  0  0  0  0  0  0
    7.2840    8.4050  -12.2780 H   0  0  0  0  0  0  0  0  0  0  0  0
  1  2  1  0
  1  3  1  0
  1  4  1  0
  1 21  1  0
  2  5  1  0
  2  8  1  0
  2514  1  0
  5  6  2  0
  5  7  1  0
  7  9  1  0
  7 10  1  0
  9 11  1  0
  9 15  1  0
  9 16  1  0
 11 12  1  0
 11 13  1  0
 11 14  1  0
 15 17  1  0
 15 18  1  0
 15 19  1  0
 20 21  1  0
 20 22  1  0
 20 23  1  0
 20 40  1  0
 21 24  1  0
 21 27  1  6
 24 25  2  0
 24 26  1  0
 26 28  1  0
 26 29  1  0
 28 30  1  0
 28 34  1  0
 28 35  1  0
 30 31  1  0
 30 32  1  0
 30 33  1  0
 34 36  1  0
 34 37  1  0
 34 38  1  0
 39 40  1  0
 39 41  1  0
 39 42  1  0
 39 59  1  0
 40 43  1  0
 40 46  1  1
 43 44  2  0
 43 45  1  0
 45 47  1  0
 45 48  1  0
 47 49  1  0
 47 53  1  0
 47 54  1  0
 49 50  1  0
 49 51  1  0
 49 52  1  0
 53 55  1  0
 53 56  1  0
 53 57  1  0
 58 59  1  0
 58 60  1  0
 58 61  1  0
 58 78  1  0
 59 62  1  0
 59 65  1  6
 62 63  2  0
 62 64  1  0
 64 66  1  0
 64 67  1  0
 66 68  1  0
 66 72  1  0
 66 73  1  0
 68 69  1  0
 68 70  1  0
 68 71  1  0
 72 74  1  0
 72 75  1  0
 72 76  1  0
 77 78  1  0
 77 79  1  0
 77 80  1  0
 77 97  1  0
 78 81  1  0
 78 84  1  1
 81 82  2  0
 81 83  1  0
 83 85  1  0
 83 86  1  0
 85 87  1  0
 85 91  1  0
 85 92  1  0
 87 88  1  0
 87 89  1  0
 87 90  1  0
 91 93  1  0
 91 94  1  0
 91 95  1  0
 96 97  1  0
 96 98  1  0
 96 99  1  0
 96116  1  0
 97100  1  0
 97103  1  6
100101  2  0
100102  1  0
102104  1  0
102105  1  0
104106  1  0
104110  1  0
104111  1  0
106107  1  0
106108  1  0
106109  1  0
110112  1  0
110113  1  0
110114  1  0
115116  1  0
115117  1  0
115118  1  0
115135  1  0
116119  1  0
116122  1  6
119120  2  0
119121  1  0
121123  1  0
121124  1  0
123125  1  0
123129  1  0
123130  1  0
125126  1  0
125127  1  0
125128  1  0
129131  1  0
129132  1  0
129133  1  0
134135  1  0
134136  1  0
134137  1  0
134154  1  0
135138  1  0
135141  1  6
138139  2  0
138140  1  0
140142  1  0
140143  1  0
142144  1  0
142148  1  0
142149  1  0
144145  1  0
144146  1  0
144147  1  0
148150  1  0
148151  1  0
148152  1  0
153154  1  0
153155  1  0
153156  1  0
153173  1  0
154157  1  0
154160  1  1
157158  2  0
157159  1  0
159161  1  0
159162  1  0
161163  1  0
161167  1  0
161168  1  0
163164  1  0
163165  1  0
163166  1  0
167169  1  0
167170  1  0
167171  1  0
172173  1  0
172174  1  0
172175  1  0
172192  1  0
173176  1  0
173179  1  6
176177  2  0
176178  1  0
178180  1  0
178181  1  0
180182  1  0
180186  1  0
180187  1  0
182183  1  0
182184  1  0
182185  1  0
186188  1  0
186189  1  0
186190  1  0
191192  1  0
191193  1  0
191194  1  0
191211  1  0
192195  1  0
192198  1  1
195196  2  0
195197  1  0
197199  1  0
197200  1  0
199201  1  0
199205  1  0
199206  1  0
201202  1  0
201203  1  0
201204  1  0
205207  1  0
205208  1  0
205209  1  0
210211  1  0
210212  1  0
210213  1  0
210230  1  0
211214  1  0
211217  1  1
214215  2  0
214216  1  0
216218  1  0
216219  1  0
218220  1  0
218224  1  0
218225  1  0
220221  1  0
220222  1  0
220223  1  0
224226  1  0
224227  1  0
224228  1  0
229230  1  0
229231  1  0
229232  1  0
229249  1  0
230233  1  0
230236  1  6
233234  2  0
233235  1  0
235237  1  0
235238  1  0
237239  1  0
237243  1  0
237244  1  0
239240  1  0
239241  1  0
239242  1  0
243245  1  0
243246  1  0
243247  1  0
248249  1  0
248250  1  0
248251  1  0
248268  1  0
249252  1  0
249255  1  6
252253  2  0
252254  1  0
254256  1  0
254257  1  0
256258  1  0
256262  1  0
256263  1  0
258259  1  0
258260  1  0
258261  1  0
262264  1  0
262265  1  0
262266  1  0
267268  1  0
267269  1  0
267270  1  0
267287  1  0
268271  1  0
268274  1  1
271272  2  0
271273  1  0
273275  1  0
273276  1  0
275277  1  0
275281  1  0
275282  1  0
277278  1  0
277279  1  0
277280  1  0
281283  1  0
281284  1  0
281285  1  0
286287  1  0
286288  1  0
286289  1  0
286306  1  0
287290  1  0
287293  1  6
290291  2  0
290292  1  0
292294  1  0
292295  1  0
294296  1  0
294300  1  0
294301  1  0
296297  1  0
296298  1  0
296299  1  0
300302  1  0
300303  1  0
300304  1  0
305306  1  0
305307  1  0
305308  1  0
305325  1  0
306309  1  0
306312  1  1
309310  2  0
309311  1  0
311313  1  0
311314  1  0
313315  1  0
313319  1  0
313320  1  0
315316  1  0
315317  1  0
315318  1  0
319321  1  0
319322  1  0
319323  1  0
324325  1  0
324326  1  0
324327  1  0
324344  1  0
325328  1  0
325331  1  1
328329  2  0
328330  1  0
330332  1  0
330333  1  0
332334  1  0
332338  1  0
332339  1  0
334335  1  0
334336  1  0
334337  1  0
338340  1  0
338341  1  0
338342  1  0
343344  1  0
343345  1  0
343346  1  0
343363  1  0
344347  1  0
344350  1  6
347348  2  0
347349  1  0
349351  1  0
349352  1  0
351353  1  0
351357  1  0
351358  1  0
353354  1  0
353355  1  0
353356  1  0
357359  1  0
357360  1  0
357361  1  0
362363  1  0
362364  1  0
362365  1  0
362382  1  0
363366  1  0
363369  1  1
366367  2  0
366368  1  0
368370  1  0
368371  1  0
370372  1  0
370376  1  0
370377  1  0
372373  1  0
372374  1  0
372375  1  0
376378  1  0
376379  1  0
376380  1  0
381382  1  0
381383  1  0
381384  1  0
381401  1  0
382385  1  0
382388  1  6
385386  2  0
385387  1  0
387389  1  0
387390  1  0
389391  1  0
389395  1  0
389396  1  0
391392  1  0
391393  1  0
391394  1  0
395397  1  0
395398  1  0
395399  1  0
400401  1  0
400402  1  0
400403  1  0
400420  1  0
401404  1  0
401407  1  1
404405  2  0
404406  1  0
406408  1  0
406409  1  0
408410  1  0
408414  1  0
408415  1  0
410411  1  0
410412  1  0
410413  1  0
414416  1  0
414417  1  0
414418  1  0
419420  1  0
419421  1  0
419422  1  0
419439  1  0
420423  1  0
420426  1  6
423424  2  0
423425  1  0
425427  1  0
425428  1  0
427429  1  0
427433  1  0
427434  1  0
429430  1  0
429431  1  0
429432  1  0
433435  1  0
433436  1  0
433437  1  0
438439  1  0
438440  1  0
438441  1  0
438458  1  0
439442  1  0
439445  1  6
442443  2  0
442444  1  0
444446  1  0
444447  1  0
446448  1  0
446452  1  0
446453  1  0
448449  1  0
448450  1  0
448451  1  0
452454  1  0
452455  1  0
452456  1  0
457458  1  0
457459  1  0
457460  1  0
457477  1  0
458461  1  0
458464  1  1
461462  2  0
461463  1  0
463465  1  0
463466  1  0
465467  1  0
465471  1  0
465472  1  0
467468  1  0
467469  1  0
467470  1  0
471473  1  0
471474  1  0
471475  1  0
476477  1  0
476478  1  0
476479  1  0
476496  1  0
477480  1  0
477483  1  1
480481  2  0
480482  1  0
482484  1  0
482485  1  0
484486  1  0
484490  1  0
484491  1  0
486487  1  0
486488  1  0
486489  1  0
490492  1  0
490493  1  0
490494  1  0
495496  1  0
495497  1  0
495498  1  0
495515  1  0
496499  1  0
496502  1  6
499500  2  0
499501  1  0
501503  1  0
501504  1  0
503505  1  0
503509  1  0
503510  1  0
505506  1  0
505507  1  0
505508  1  0
509511  1  0
509512  1  0
509513  1  0
M  END
>  <charge_method>  (1) 
NAGL

>  <metadata>  (1) 
{0: {'residue_name': 'pnipam_TERM2', 'residue_number': 80, 'insertion_code': ' ', 'chain_id': ' ', 'match_info': '{"27": ["pnipam", 1], "28": ["pnipam", 1], "80": ["pnipam_TERM2", 1]}', 'substructure_query_id': 1}, 1: {'residue_name': 'pnipam_TERM2', 'residue_number': 80, 'insertion_code': ' ', 'chain_id': ' ', 'match_info': '{"28": ["pnipam", 4], "80": ["pnipam_TERM2", 4]}', 'substructure_query_id': 4}, 2: {'residue_name': 'pnipam_TERM2', 'residue_number': 80, 'insertion_code': ' ', 'chain_id': ' ', 'match_info': '{"27": ["pnipam", 2], "28": ["pnipam", 2], "80": ["pnipam_TERM2", 2]}', 'substructure_query_id': 2}, 3: {'residue_name': 'pnipam_TERM2', 'residue_number': 80, 'insertion_code': ' ', 'chain_id': ' ', 'match_info': '{"27": ["pnipam", 3], "28": ["pnipam", 3], "80": ["pnipam_TERM2", 3]}', 'substructure_query_id': 3}, 4: {'residue_name': 'pnipam_TERM2', 'residue_number': 80, 'insertion_code': ' ', 'chain_id': ' ', 'match_info': '{"0": ["PEPTIDE_BOND", 1], "28": ["pnipam", 6], "80": ["pnipam_TERM2", 6]}', 'substructure_query_id': 6}, 5: {'residue_name': 'pnipam_TERM2', 'residue_number': 80, 'insertion_code': ' ', 'chain_id': ' ', 'match_info': '{"0": ["PEPTIDE_BOND", 2], "28": ["pnipam", 7], "80": ["pnipam_TERM2", 7]}', 'substructure_query_id': 7}, 6: {'residue_name': 'pnipam_TERM2', 'residue_number': 80, 'insertion_code': ' ', 'chain_id': ' ', 'match_info': '{"0": ["PEPTIDE_BOND", 3], "28": ["pnipam", 8], "80": ["pnipam_TERM2", 8]}', 'substructure_query_id': 8}, 7: {'residue_name': 'pnipam_TERM2', 'residue_number': 80, 'insertion_code': ' ', 'chain_id': ' ', 'match_info': '{"28": ["pnipam", 5], "80": ["pnipam_TERM2", 5]}', 'substructure_query_id': 5}, 8: {'residue_name': 'pnipam_TERM2', 'residue_number': 80, 'insertion_code': ' ', 'chain_id': ' ', 'match_info': '{"0": ["PEPTIDE_BOND", 5], "28": ["pnipam", 10], "80": ["pnipam_TERM2", 10]}', 'substructure_query_id': 10}, 9: {'residue_name': 'pnipam_TERM2', 'residue_number': 80, 'insertion_code': ' ', 'chain_id': ' ', 'match_info': '{"0": ["PEPTIDE_BOND", 4], "28": ["pnipam", 9], "80": ["pnipam_TERM2", 9]}', 'substructure_query_id': 9}, 10: {'residue_name': 'pnipam_TERM2', 'residue_number': 80, 'insertion_code': ' ', 'chain_id': ' ', 'match_info': '{"28": ["pnipam", 12], "80": ["pnipam_TERM2", 12]}', 'substructure_query_id': 12}, 11: {'residue_name': 'pnipam_TERM2', 'residue_number': 80, 'insertion_code': ' ', 'chain_id': ' ', 'match_info': '{"28": ["pnipam", 13], "80": ["pnipam_TERM2", 13]}', 'substructure_query_id': 13}, 12: {'residue_name': 'pnipam_TERM2', 'residue_number': 80, 'insertion_code': ' ', 'chain_id': ' ', 'match_info': '{"28": ["pnipam", 14], "80": ["pnipam_TERM2", 14]}', 'substructure_query_id': 14}, 13: {'residue_name': 'pnipam_TERM2', 'residue_number': 80, 'insertion_code': ' ', 'chain_id': ' ', 'match_info': '{"28": ["pnipam", 15], "80": ["pnipam_TERM2", 15]}', 'substructure_query_id': 15}, 14: {'residue_name': 'pnipam_TERM2', 'residue_number': 80, 'insertion_code': ' ', 'chain_id': ' ', 'match_info': '{"28": ["pnipam", 16], "80": ["pnipam_TERM2", 16]}', 'substructure_query_id': 16}, 15: {'residue_name': 'pnipam_TERM2', 'residue_number': 80, 'insertion_code': ' ', 'chain_id': ' ', 'match_info': '{"28": ["pnipam", 11], "80": ["pnipam_TERM2", 11]}', 'substructure_query_id': 11}, 16: {'residue_name': 'pnipam_TERM2', 'residue_number': 80, 'insertion_code': ' ', 'chain_id': ' ', 'match_info': '{"28": ["pnipam", 17], "80": ["pnipam_TERM2", 17]}', 'substructure_query_id': 17}, 17: {'residue_name': 'pnipam_TERM2', 'residue_number': 80, 'insertion_code': ' ', 'chain_id': ' ', 'match_info': '{"28": ["pnipam", 18], "80": ["pnipam_TERM2", 18]}', 'substructure_query_id': 18}, 18: {'residue_name': 'pnipam_TERM2', 'residue_number': 80, 'insertion_code': ' ', 'chain_id': ' ', 'match_info': '{"28": ["pnipam", 19], "80": ["pnipam_TERM2", 19]}', 'substructure_query_id': 19}, 19: {'residue_name': 'pnipam', 'residue_number': 30, 'insertion_code': ' ', 'chain_id': ' ', 'match_info': '{"29": ["pnipam", 1], "30": ["pnipam", 1]}', 'substructure_query_id': 1}, 20: {'residue_name': 'pnipam', 'residue_number': 30, 'insertion_code': ' ', 'chain_id': ' ', 'match_info': '{"27": ["pnipam", 4], "30": ["pnipam", 4]}', 'substructure_query_id': 4}, 21: {'residue_name': 'pnipam', 'residue_number': 30, 'insertion_code': ' ', 'chain_id': ' ', 'match_info': '{"29": ["pnipam", 2], "30": ["pnipam", 2]}', 'substructure_query_id': 2}, 22: {'residue_name': 'pnipam', 'residue_number': 30, 'insertion_code': ' ', 'chain_id': ' ', 'match_info': '{"29": ["pnipam", 3], "30": ["pnipam", 3]}', 'substructure_query_id': 3}, 23: {'residue_name': 'pnipam', 'residue_number': 30, 'insertion_code': ' ', 'chain_id': ' ', 'match_info': '{"1": ["PEPTIDE_BOND", 1], "27": ["pnipam", 6], "30": ["pnipam", 6]}', 'substructure_query_id': 6}, 24: {'residue_name': 'pnipam', 'residue_number': 30, 'insertion_code': ' ', 'chain_id': ' ', 'match_info': '{"1": ["PEPTIDE_BOND", 2], "27": ["pnipam", 7], "30": ["pnipam", 7]}', 'substructure_query_id': 7}, 25: {'residue_name': 'pnipam', 'residue_number': 30, 'insertion_code': ' ', 'chain_id': ' ', 'match_info': '{"1": ["PEPTIDE_BOND", 3], "27": ["pnipam", 8], "30": ["pnipam", 8]}', 'substructure_query_id': 8}, 26: {'residue_name': 'pnipam', 'residue_number': 30, 'insertion_code': ' ', 'chain_id': ' ', 'match_info': '{"27": ["pnipam", 5], "30": ["pnipam", 5]}', 'substructure_query_id': 5}, 27: {'residue_name': 'pnipam', 'residue_number': 30, 'insertion_code': ' ', 'chain_id': ' ', 'match_info': '{"1": ["PEPTIDE_BOND", 5], "27": ["pnipam", 10], "30": ["pnipam", 10]}', 'substructure_query_id': 10}, 28: {'residue_name': 'pnipam', 'residue_number': 30, 'insertion_code': ' ', 'chain_id': ' ', 'match_info': '{"1": ["PEPTIDE_BOND", 4], "27": ["pnipam", 9], "30": ["pnipam", 9]}', 'substructure_query_id': 9}, 29: {'residue_name': 'pnipam', 'residue_number': 30, 'insertion_code': ' ', 'chain_id': ' ', 'match_info': '{"27": ["pnipam", 12], "30": ["pnipam", 12]}', 'substructure_query_id': 12}, 30: {'residue_name': 'pnipam', 'residue_number': 30, 'insertion_code': ' ', 'chain_id': ' ', 'match_info': '{"27": ["pnipam", 13], "30": ["pnipam", 13]}', 'substructure_query_id': 13}, 31: {'residue_name': 'pnipam', 'residue_number': 30, 'insertion_code': ' ', 'chain_id': ' ', 'match_info': '{"27": ["pnipam", 14], "30": ["pnipam", 14]}', 'substructure_query_id': 14}, 32: {'residue_name': 'pnipam', 'residue_number': 30, 'insertion_code': ' ', 'chain_id': ' ', 'match_info': '{"27": ["pnipam", 15], "30": ["pnipam", 15]}', 'substructure_query_id': 15}, 33: {'residue_name': 'pnipam', 'residue_number': 30, 'insertion_code': ' ', 'chain_id': ' ', 'match_info': '{"27": ["pnipam", 16], "30": ["pnipam", 16]}', 'substructure_query_id': 16}, 34: {'residue_name': 'pnipam', 'residue_number': 30, 'insertion_code': ' ', 'chain_id': ' ', 'match_info': '{"27": ["pnipam", 11], "30": ["pnipam", 11]}', 'substructure_query_id': 11}, 35: {'residue_name': 'pnipam', 'residue_number': 30, 'insertion_code': ' ', 'chain_id': ' ', 'match_info': '{"27": ["pnipam", 17], "30": ["pnipam", 17]}', 'substructure_query_id': 17}, 36: {'residue_name': 'pnipam', 'residue_number': 30, 'insertion_code': ' ', 'chain_id': ' ', 'match_info': '{"27": ["pnipam", 18], "30": ["pnipam", 18]}', 'substructure_query_id': 18}, 37: {'residue_name': 'pnipam', 'residue_number': 30, 'insertion_code': ' ', 'chain_id': ' ', 'match_info': '{"27": ["pnipam", 19], "30": ["pnipam", 19]}', 'substructure_query_id': 19}, 38: {'residue_name': 'pnipam', 'residue_number': 32, 'insertion_code': ' ', 'chain_id': ' ', 'match_info': '{"31": ["pnipam", 1], "32": ["pnipam", 1]}', 'substructure_query_id': 1}, 39: {'residue_name': 'pnipam', 'residue_number': 32, 'insertion_code': ' ', 'chain_id': ' ', 'match_info': '{"29": ["pnipam", 4], "32": ["pnipam", 4]}', 'substructure_query_id': 4}, 40: {'residue_name': 'pnipam', 'residue_number': 32, 'insertion_code': ' ', 'chain_id': ' ', 'match_info': '{"31": ["pnipam", 2], "32": ["pnipam", 2]}', 'substructure_query_id': 2}, 41: {'residue_name': 'pnipam', 'residue_number': 32, 'insertion_code': ' ', 'chain_id': ' ', 'match_info': '{"31": ["pnipam", 3], "32": ["pnipam", 3]}', 'substructure_query_id': 3}, 42: {'residue_name': 'pnipam', 'residue_number': 32, 'insertion_code': ' ', 'chain_id': ' ', 'match_info': '{"2": ["PEPTIDE_BOND", 1], "29": ["pnipam", 6], "32": ["pnipam", 6]}', 'substructure_query_id': 6}, 43: {'residue_name': 'pnipam', 'residue_number': 32, 'insertion_code': ' ', 'chain_id': ' ', 'match_info': '{"2": ["PEPTIDE_BOND", 2], "29": ["pnipam", 7], "32": ["pnipam", 7]}', 'substructure_query_id': 7}, 44: {'residue_name': 'pnipam', 'residue_number': 32, 'insertion_code': ' ', 'chain_id': ' ', 'match_info': '{"2": ["PEPTIDE_BOND", 3], "29": ["pnipam", 8], "32": ["pnipam", 8]}', 'substructure_query_id': 8}, 45: {'residue_name': 'pnipam', 'residue_number': 32, 'insertion_code': ' ', 'chain_id': ' ', 'match_info': '{"29": ["pnipam", 5], "32": ["pnipam", 5]}', 'substructure_query_id': 5}, 46: {'residue_name': 'pnipam', 'residue_number': 32, 'insertion_code': ' ', 'chain_id': ' ', 'match_info': '{"2": ["PEPTIDE_BOND", 5], "29": ["pnipam", 10], "32": ["pnipam", 10]}', 'substructure_query_id': 10}, 47: {'residue_name': 'pnipam', 'residue_number': 32, 'insertion_code': ' ', 'chain_id': ' ', 'match_info': '{"2": ["PEPTIDE_BOND", 4], "29": ["pnipam", 9], "32": ["pnipam", 9]}', 'substructure_query_id': 9}, 48: {'residue_name': 'pnipam', 'residue_number': 32, 'insertion_code': ' ', 'chain_id': ' ', 'match_info': '{"29": ["pnipam", 12], "32": ["pnipam", 12]}', 'substructure_query_id': 12}, 49: {'residue_name': 'pnipam', 'residue_number': 32, 'insertion_code': ' ', 'chain_id': ' ', 'match_info': '{"29": ["pnipam", 13], "32": ["pnipam", 13]}', 'substructure_query_id': 13}, 50: {'residue_name': 'pnipam', 'residue_number': 32, 'insertion_code': ' ', 'chain_id': ' ', 'match_info': '{"29": ["pnipam", 14], "32": ["pnipam", 14]}', 'substructure_query_id': 14}, 51: {'residue_name': 'pnipam', 'residue_number': 32, 'insertion_code': ' ', 'chain_id': ' ', 'match_info': '{"29": ["pnipam", 15], "32": ["pnipam", 15]}', 'substructure_query_id': 15}, 52: {'residue_name': 'pnipam', 'residue_number': 32, 'insertion_code': ' ', 'chain_id': ' ', 'match_info': '{"29": ["pnipam", 16], "32": ["pnipam", 16]}', 'substructure_query_id': 16}, 53: {'residue_name': 'pnipam', 'residue_number': 32, 'insertion_code': ' ', 'chain_id': ' ', 'match_info': '{"29": ["pnipam", 11], "32": ["pnipam", 11]}', 'substructure_query_id': 11}, 54: {'residue_name': 'pnipam', 'residue_number': 32, 'insertion_code': ' ', 'chain_id': ' ', 'match_info': '{"29": ["pnipam", 17], "32": ["pnipam", 17]}', 'substructure_query_id': 17}, 55: {'residue_name': 'pnipam', 'residue_number': 32, 'insertion_code': ' ', 'chain_id': ' ', 'match_info': '{"29": ["pnipam", 18], "32": ["pnipam", 18]}', 'substructure_query_id': 18}, 56: {'residue_name': 'pnipam', 'residue_number': 32, 'insertion_code': ' ', 'chain_id': ' ', 'match_info': '{"29": ["pnipam", 19], "32": ["pnipam", 19]}', 'substructure_query_id': 19}, 57: {'residue_name': 'pnipam', 'residue_number': 34, 'insertion_code': ' ', 'chain_id': ' ', 'match_info': '{"33": ["pnipam", 1], "34": ["pnipam", 1]}', 'substructure_query_id': 1}, 58: {'residue_name': 'pnipam', 'residue_number': 34, 'insertion_code': ' ', 'chain_id': ' ', 'match_info': '{"31": ["pnipam", 4], "34": ["pnipam", 4]}', 'substructure_query_id': 4}, 59: {'residue_name': 'pnipam', 'residue_number': 34, 'insertion_code': ' ', 'chain_id': ' ', 'match_info': '{"33": ["pnipam", 2], "34": ["pnipam", 2]}', 'substructure_query_id': 2}, 60: {'residue_name': 'pnipam', 'residue_number': 34, 'insertion_code': ' ', 'chain_id': ' ', 'match_info': '{"33": ["pnipam", 3], "34": ["pnipam", 3]}', 'substructure_query_id': 3}, 61: {'residue_name': 'pnipam', 'residue_number': 34, 'insertion_code': ' ', 'chain_id': ' ', 'match_info': '{"3": ["PEPTIDE_BOND", 1], "31": ["pnipam", 6], "34": ["pnipam", 6]}', 'substructure_query_id': 6}, 62: {'residue_name': 'pnipam', 'residue_number': 34, 'insertion_code': ' ', 'chain_id': ' ', 'match_info': '{"3": ["PEPTIDE_BOND", 2], "31": ["pnipam", 7], "34": ["pnipam", 7]}', 'substructure_query_id': 7}, 63: {'residue_name': 'pnipam', 'residue_number': 34, 'insertion_code': ' ', 'chain_id': ' ', 'match_info': '{"3": ["PEPTIDE_BOND", 3], "31": ["pnipam", 8], "34": ["pnipam", 8]}', 'substructure_query_id': 8}, 64: {'residue_name': 'pnipam', 'residue_number': 34, 'insertion_code': ' ', 'chain_id': ' ', 'match_info': '{"31": ["pnipam", 5], "34": ["pnipam", 5]}', 'substructure_query_id': 5}, 65: {'residue_name': 'pnipam', 'residue_number': 34, 'insertion_code': ' ', 'chain_id': ' ', 'match_info': '{"3": ["PEPTIDE_BOND", 5], "31": ["pnipam", 10], "34": ["pnipam", 10]}', 'substructure_query_id': 10}, 66: {'residue_name': 'pnipam', 'residue_number': 34, 'insertion_code': ' ', 'chain_id': ' ', 'match_info': '{"3": ["PEPTIDE_BOND", 4], "31": ["pnipam", 9], "34": ["pnipam", 9]}', 'substructure_query_id': 9}, 67: {'residue_name': 'pnipam', 'residue_number': 34, 'insertion_code': ' ', 'chain_id': ' ', 'match_info': '{"31": ["pnipam", 12], "34": ["pnipam", 12]}', 'substructure_query_id': 12}, 68: {'residue_name': 'pnipam', 'residue_number': 34, 'insertion_code': ' ', 'chain_id': ' ', 'match_info': '{"31": ["pnipam", 13], "34": ["pnipam", 13]}', 'substructure_query_id': 13}, 69: {'residue_name': 'pnipam', 'residue_number': 34, 'insertion_code': ' ', 'chain_id': ' ', 'match_info': '{"31": ["pnipam", 14], "34": ["pnipam", 14]}', 'substructure_query_id': 14}, 70: {'residue_name': 'pnipam', 'residue_number': 34, 'insertion_code': ' ', 'chain_id': ' ', 'match_info': '{"31": ["pnipam", 15], "34": ["pnipam", 15]}', 'substructure_query_id': 15}, 71: {'residue_name': 'pnipam', 'residue_number': 34, 'insertion_code': ' ', 'chain_id': ' ', 'match_info': '{"31": ["pnipam", 16], "34": ["pnipam", 16]}', 'substructure_query_id': 16}, 72: {'residue_name': 'pnipam', 'residue_number': 34, 'insertion_code': ' ', 'chain_id': ' ', 'match_info': '{"31": ["pnipam", 11], "34": ["pnipam", 11]}', 'substructure_query_id': 11}, 73: {'residue_name': 'pnipam', 'residue_number': 34, 'insertion_code': ' ', 'chain_id': ' ', 'match_info': '{"31": ["pnipam", 17], "34": ["pnipam", 17]}', 'substructure_query_id': 17}, 74: {'residue_name': 'pnipam', 'residue_number': 34, 'insertion_code': ' ', 'chain_id': ' ', 'match_info': '{"31": ["pnipam", 18], "34": ["pnipam", 18]}', 'substructure_query_id': 18}, 75: {'residue_name': 'pnipam', 'residue_number': 34, 'insertion_code': ' ', 'chain_id': ' ', 'match_info': '{"31": ["pnipam", 19], "34": ["pnipam", 19]}', 'substructure_query_id': 19}, 76: {'residue_name': 'pnipam', 'residue_number': 36, 'insertion_code': ' ', 'chain_id': ' ', 'match_info': '{"35": ["pnipam", 1], "36": ["pnipam", 1]}', 'substructure_query_id': 1}, 77: {'residue_name': 'pnipam', 'residue_number': 36, 'insertion_code': ' ', 'chain_id': ' ', 'match_info': '{"33": ["pnipam", 4], "36": ["pnipam", 4]}', 'substructure_query_id': 4}, 78: {'residue_name': 'pnipam', 'residue_number': 36, 'insertion_code': ' ', 'chain_id': ' ', 'match_info': '{"35": ["pnipam", 2], "36": ["pnipam", 2]}', 'substructure_query_id': 2}, 79: {'residue_name': 'pnipam', 'residue_number': 36, 'insertion_code': ' ', 'chain_id': ' ', 'match_info': '{"35": ["pnipam", 3], "36": ["pnipam", 3]}', 'substructure_query_id': 3}, 80: {'residue_name': 'pnipam', 'residue_number': 36, 'insertion_code': ' ', 'chain_id': ' ', 'match_info': '{"4": ["PEPTIDE_BOND", 1], "33": ["pnipam", 6], "36": ["pnipam", 6]}', 'substructure_query_id': 6}, 81: {'residue_name': 'pnipam', 'residue_number': 36, 'insertion_code': ' ', 'chain_id': ' ', 'match_info': '{"4": ["PEPTIDE_BOND", 2], "33": ["pnipam", 7], "36": ["pnipam", 7]}', 'substructure_query_id': 7}, 82: {'residue_name': 'pnipam', 'residue_number': 36, 'insertion_code': ' ', 'chain_id': ' ', 'match_info': '{"4": ["PEPTIDE_BOND", 3], "33": ["pnipam", 8], "36": ["pnipam", 8]}', 'substructure_query_id': 8}, 83: {'residue_name': 'pnipam', 'residue_number': 36, 'insertion_code': ' ', 'chain_id': ' ', 'match_info': '{"33": ["pnipam", 5], "36": ["pnipam", 5]}', 'substructure_query_id': 5}, 84: {'residue_name': 'pnipam', 'residue_number': 36, 'insertion_code': ' ', 'chain_id': ' ', 'match_info': '{"4": ["PEPTIDE_BOND", 5], "33": ["pnipam", 10], "36": ["pnipam", 10]}', 'substructure_query_id': 10}, 85: {'residue_name': 'pnipam', 'residue_number': 36, 'insertion_code': ' ', 'chain_id': ' ', 'match_info': '{"4": ["PEPTIDE_BOND", 4], "33": ["pnipam", 9], "36": ["pnipam", 9]}', 'substructure_query_id': 9}, 86: {'residue_name': 'pnipam', 'residue_number': 36, 'insertion_code': ' ', 'chain_id': ' ', 'match_info': '{"33": ["pnipam", 12], "36": ["pnipam", 12]}', 'substructure_query_id': 12}, 87: {'residue_name': 'pnipam', 'residue_number': 36, 'insertion_code': ' ', 'chain_id': ' ', 'match_info': '{"33": ["pnipam", 13], "36": ["pnipam", 13]}', 'substructure_query_id': 13}, 88: {'residue_name': 'pnipam', 'residue_number': 36, 'insertion_code': ' ', 'chain_id': ' ', 'match_info': '{"33": ["pnipam", 14], "36": ["pnipam", 14]}', 'substructure_query_id': 14}, 89: {'residue_name': 'pnipam', 'residue_number': 36, 'insertion_code': ' ', 'chain_id': ' ', 'match_info': '{"33": ["pnipam", 15], "36": ["pnipam", 15]}', 'substructure_query_id': 15}, 90: {'residue_name': 'pnipam', 'residue_number': 36, 'insertion_code': ' ', 'chain_id': ' ', 'match_info': '{"33": ["pnipam", 16], "36": ["pnipam", 16]}', 'substructure_query_id': 16}, 91: {'residue_name': 'pnipam', 'residue_number': 36, 'insertion_code': ' ', 'chain_id': ' ', 'match_info': '{"33": ["pnipam", 11], "36": ["pnipam", 11]}', 'substructure_query_id': 11}, 92: {'residue_name': 'pnipam', 'residue_number': 36, 'insertion_code': ' ', 'chain_id': ' ', 'match_info': '{"33": ["pnipam", 17], "36": ["pnipam", 17]}', 'substructure_query_id': 17}, 93: {'residue_name': 'pnipam', 'residue_number': 36, 'insertion_code': ' ', 'chain_id': ' ', 'match_info': '{"33": ["pnipam", 18], "36": ["pnipam", 18]}', 'substructure_query_id': 18}, 94: {'residue_name': 'pnipam', 'residue_number': 36, 'insertion_code': ' ', 'chain_id': ' ', 'match_info': '{"33": ["pnipam", 19], "36": ["pnipam", 19]}', 'substructure_query_id': 19}, 95: {'residue_name': 'pnipam', 'residue_number': 38, 'insertion_code': ' ', 'chain_id': ' ', 'match_info': '{"37": ["pnipam", 1], "38": ["pnipam", 1]}', 'substructure_query_id': 1}, 96: {'residue_name': 'pnipam', 'residue_number': 38, 'insertion_code': ' ', 'chain_id': ' ', 'match_info': '{"35": ["pnipam", 4], "38": ["pnipam", 4]}', 'substructure_query_id': 4}, 97: {'residue_name': 'pnipam', 'residue_number': 38, 'insertion_code': ' ', 'chain_id': ' ', 'match_info': '{"37": ["pnipam", 2], "38": ["pnipam", 2]}', 'substructure_query_id': 2}, 98: {'residue_name': 'pnipam', 'residue_number': 38, 'insertion_code': ' ', 'chain_id': ' ', 'match_info': '{"37": ["pnipam", 3], "38": ["pnipam", 3]}', 'substructure_query_id': 3}, 99: {'residue_name': 'pnipam', 'residue_number': 38, 'insertion_code': ' ', 'chain_id': ' ', 'match_info': '{"5": ["PEPTIDE_BOND", 1], "35": ["pnipam", 6], "38": ["pnipam", 6]}', 'substructure_query_id': 6}, 100: {'residue_name': 'pnipam', 'residue_number': 38, 'insertion_code': ' ', 'chain_id': ' ', 'match_info': '{"5": ["PEPTIDE_BOND", 2], "35": ["pnipam", 7], "38": ["pnipam", 7]}', 'substructure_query_id': 7}, 101: {'residue_name': 'pnipam', 'residue_number': 38, 'insertion_code': ' ', 'chain_id': ' ', 'match_info': '{"5": ["PEPTIDE_BOND", 3], "35": ["pnipam", 8], "38": ["pnipam", 8]}', 'substructure_query_id': 8}, 102: {'residue_name': 'pnipam', 'residue_number': 38, 'insertion_code': ' ', 'chain_id': ' ', 'match_info': '{"35": ["pnipam", 5], "38": ["pnipam", 5]}', 'substructure_query_id': 5}, 103: {'residue_name': 'pnipam', 'residue_number': 38, 'insertion_code': ' ', 'chain_id': ' ', 'match_info': '{"5": ["PEPTIDE_BOND", 5], "35": ["pnipam", 10], "38": ["pnipam", 10]}', 'substructure_query_id': 10}, 104: {'residue_name': 'pnipam', 'residue_number': 38, 'insertion_code': ' ', 'chain_id': ' ', 'match_info': '{"5": ["PEPTIDE_BOND", 4], "35": ["pnipam", 9], "38": ["pnipam", 9]}', 'substructure_query_id': 9}, 105: {'residue_name': 'pnipam', 'residue_number': 38, 'insertion_code': ' ', 'chain_id': ' ', 'match_info': '{"35": ["pnipam", 12], "38": ["pnipam", 12]}', 'substructure_query_id': 12}, 106: {'residue_name': 'pnipam', 'residue_number': 38, 'insertion_code': ' ', 'chain_id': ' ', 'match_info': '{"35": ["pnipam", 13], "38": ["pnipam", 13]}', 'substructure_query_id': 13}, 107: {'residue_name': 'pnipam', 'residue_number': 38, 'insertion_code': ' ', 'chain_id': ' ', 'match_info': '{"35": ["pnipam", 14], "38": ["pnipam", 14]}', 'substructure_query_id': 14}, 108: {'residue_name': 'pnipam', 'residue_number': 38, 'insertion_code': ' ', 'chain_id': ' ', 'match_info': '{"35": ["pnipam", 15], "38": ["pnipam", 15]}', 'substructure_query_id': 15}, 109: {'residue_name': 'pnipam', 'residue_number': 38, 'insertion_code': ' ', 'chain_id': ' ', 'match_info': '{"35": ["pnipam", 16], "38": ["pnipam", 16]}', 'substructure_query_id': 16}, 110: {'residue_name': 'pnipam', 'residue_number': 38, 'insertion_code': ' ', 'chain_id': ' ', 'match_info': '{"35": ["pnipam", 11], "38": ["pnipam", 11]}', 'substructure_query_id': 11}, 111: {'residue_name': 'pnipam', 'residue_number': 38, 'insertion_code': ' ', 'chain_id': ' ', 'match_info': '{"35": ["pnipam", 17], "38": ["pnipam", 17]}', 'substructure_query_id': 17}, 112: {'residue_name': 'pnipam', 'residue_number': 38, 'insertion_code': ' ', 'chain_id': ' ', 'match_info': '{"35": ["pnipam", 18], "38": ["pnipam", 18]}', 'substructure_query_id': 18}, 113: {'residue_name': 'pnipam', 'residue_number': 38, 'insertion_code': ' ', 'chain_id': ' ', 'match_info': '{"35": ["pnipam", 19], "38": ["pnipam", 19]}', 'substructure_query_id': 19}, 114: {'residue_name': 'pnipam', 'residue_number': 40, 'insertion_code': ' ', 'chain_id': ' ', 'match_info': '{"39": ["pnipam", 1], "40": ["pnipam", 1]}', 'substructure_query_id': 1}, 115: {'residue_name': 'pnipam', 'residue_number': 40, 'insertion_code': ' ', 'chain_id': ' ', 'match_info': '{"37": ["pnipam", 4], "40": ["pnipam", 4]}', 'substructure_query_id': 4}, 116: {'residue_name': 'pnipam', 'residue_number': 40, 'insertion_code': ' ', 'chain_id': ' ', 'match_info': '{"39": ["pnipam", 2], "40": ["pnipam", 2]}', 'substructure_query_id': 2}, 117: {'residue_name': 'pnipam', 'residue_number': 40, 'insertion_code': ' ', 'chain_id': ' ', 'match_info': '{"39": ["pnipam", 3], "40": ["pnipam", 3]}', 'substructure_query_id': 3}, 118: {'residue_name': 'pnipam', 'residue_number': 40, 'insertion_code': ' ', 'chain_id': ' ', 'match_info': '{"6": ["PEPTIDE_BOND", 1], "37": ["pnipam", 6], "40": ["pnipam", 6]}', 'substructure_query_id': 6}, 119: {'residue_name': 'pnipam', 'residue_number': 40, 'insertion_code': ' ', 'chain_id': ' ', 'match_info': '{"6": ["PEPTIDE_BOND", 2], "37": ["pnipam", 7], "40": ["pnipam", 7]}', 'substructure_query_id': 7}, 120: {'residue_name': 'pnipam', 'residue_number': 40, 'insertion_code': ' ', 'chain_id': ' ', 'match_info': '{"6": ["PEPTIDE_BOND", 3], "37": ["pnipam", 8], "40": ["pnipam", 8]}', 'substructure_query_id': 8}, 121: {'residue_name': 'pnipam', 'residue_number': 40, 'insertion_code': ' ', 'chain_id': ' ', 'match_info': '{"37": ["pnipam", 5], "40": ["pnipam", 5]}', 'substructure_query_id': 5}, 122: {'residue_name': 'pnipam', 'residue_number': 40, 'insertion_code': ' ', 'chain_id': ' ', 'match_info': '{"6": ["PEPTIDE_BOND", 5], "37": ["pnipam", 10], "40": ["pnipam", 10]}', 'substructure_query_id': 10}, 123: {'residue_name': 'pnipam', 'residue_number': 40, 'insertion_code': ' ', 'chain_id': ' ', 'match_info': '{"6": ["PEPTIDE_BOND", 4], "37": ["pnipam", 9], "40": ["pnipam", 9]}', 'substructure_query_id': 9}, 124: {'residue_name': 'pnipam', 'residue_number': 40, 'insertion_code': ' ', 'chain_id': ' ', 'match_info': '{"37": ["pnipam", 12], "40": ["pnipam", 12]}', 'substructure_query_id': 12}, 125: {'residue_name': 'pnipam', 'residue_number': 40, 'insertion_code': ' ', 'chain_id': ' ', 'match_info': '{"37": ["pnipam", 13], "40": ["pnipam", 13]}', 'substructure_query_id': 13}, 126: {'residue_name': 'pnipam', 'residue_number': 40, 'insertion_code': ' ', 'chain_id': ' ', 'match_info': '{"37": ["pnipam", 14], "40": ["pnipam", 14]}', 'substructure_query_id': 14}, 127: {'residue_name': 'pnipam', 'residue_number': 40, 'insertion_code': ' ', 'chain_id': ' ', 'match_info': '{"37": ["pnipam", 15], "40": ["pnipam", 15]}', 'substructure_query_id': 15}, 128: {'residue_name': 'pnipam', 'residue_number': 40, 'insertion_code': ' ', 'chain_id': ' ', 'match_info': '{"37": ["pnipam", 16], "40": ["pnipam", 16]}', 'substructure_query_id': 16}, 129: {'residue_name': 'pnipam', 'residue_number': 40, 'insertion_code': ' ', 'chain_id': ' ', 'match_info': '{"37": ["pnipam", 11], "40": ["pnipam", 11]}', 'substructure_query_id': 11}, 130: {'residue_name': 'pnipam', 'residue_number': 40, 'insertion_code': ' ', 'chain_id': ' ', 'match_info': '{"37": ["pnipam", 17], "40": ["pnipam", 17]}', 'substructure_query_id': 17}, 131: {'residue_name': 'pnipam', 'residue_number': 40, 'insertion_code': ' ', 'chain_id': ' ', 'match_info': '{"37": ["pnipam", 18], "40": ["pnipam", 18]}', 'substructure_query_id': 18}, 132: {'residue_name': 'pnipam', 'residue_number': 40, 'insertion_code': ' ', 'chain_id': ' ', 'match_info': '{"37": ["pnipam", 19], "40": ["pnipam", 19]}', 'substructure_query_id': 19}, 133: {'residue_name': 'pnipam', 'residue_number': 42, 'insertion_code': ' ', 'chain_id': ' ', 'match_info': '{"41": ["pnipam", 1], "42": ["pnipam", 1]}', 'substructure_query_id': 1}, 134: {'residue_name': 'pnipam', 'residue_number': 42, 'insertion_code': ' ', 'chain_id': ' ', 'match_info': '{"39": ["pnipam", 4], "42": ["pnipam", 4]}', 'substructure_query_id': 4}, 135: {'residue_name': 'pnipam', 'residue_number': 42, 'insertion_code': ' ', 'chain_id': ' ', 'match_info': '{"41": ["pnipam", 2], "42": ["pnipam", 2]}', 'substructure_query_id': 2}, 136: {'residue_name': 'pnipam', 'residue_number': 42, 'insertion_code': ' ', 'chain_id': ' ', 'match_info': '{"41": ["pnipam", 3], "42": ["pnipam", 3]}', 'substructure_query_id': 3}, 137: {'residue_name': 'pnipam', 'residue_number': 42, 'insertion_code': ' ', 'chain_id': ' ', 'match_info': '{"7": ["PEPTIDE_BOND", 1], "39": ["pnipam", 6], "42": ["pnipam", 6]}', 'substructure_query_id': 6}, 138: {'residue_name': 'pnipam', 'residue_number': 42, 'insertion_code': ' ', 'chain_id': ' ', 'match_info': '{"7": ["PEPTIDE_BOND", 2], "39": ["pnipam", 7], "42": ["pnipam", 7]}', 'substructure_query_id': 7}, 139: {'residue_name': 'pnipam', 'residue_number': 42, 'insertion_code': ' ', 'chain_id': ' ', 'match_info': '{"7": ["PEPTIDE_BOND", 3], "39": ["pnipam", 8], "42": ["pnipam", 8]}', 'substructure_query_id': 8}, 140: {'residue_name': 'pnipam', 'residue_number': 42, 'insertion_code': ' ', 'chain_id': ' ', 'match_info': '{"39": ["pnipam", 5], "42": ["pnipam", 5]}', 'substructure_query_id': 5}, 141: {'residue_name': 'pnipam', 'residue_number': 42, 'insertion_code': ' ', 'chain_id': ' ', 'match_info': '{"7": ["PEPTIDE_BOND", 5], "39": ["pnipam", 10], "42": ["pnipam", 10]}', 'substructure_query_id': 10}, 142: {'residue_name': 'pnipam', 'residue_number': 42, 'insertion_code': ' ', 'chain_id': ' ', 'match_info': '{"7": ["PEPTIDE_BOND", 4], "39": ["pnipam", 9], "42": ["pnipam", 9]}', 'substructure_query_id': 9}, 143: {'residue_name': 'pnipam', 'residue_number': 42, 'insertion_code': ' ', 'chain_id': ' ', 'match_info': '{"39": ["pnipam", 12], "42": ["pnipam", 12]}', 'substructure_query_id': 12}, 144: {'residue_name': 'pnipam', 'residue_number': 42, 'insertion_code': ' ', 'chain_id': ' ', 'match_info': '{"39": ["pnipam", 13], "42": ["pnipam", 13]}', 'substructure_query_id': 13}, 145: {'residue_name': 'pnipam', 'residue_number': 42, 'insertion_code': ' ', 'chain_id': ' ', 'match_info': '{"39": ["pnipam", 14], "42": ["pnipam", 14]}', 'substructure_query_id': 14}, 146: {'residue_name': 'pnipam', 'residue_number': 42, 'insertion_code': ' ', 'chain_id': ' ', 'match_info': '{"39": ["pnipam", 15], "42": ["pnipam", 15]}', 'substructure_query_id': 15}, 147: {'residue_name': 'pnipam', 'residue_number': 42, 'insertion_code': ' ', 'chain_id': ' ', 'match_info': '{"39": ["pnipam", 16], "42": ["pnipam", 16]}', 'substructure_query_id': 16}, 148: {'residue_name': 'pnipam', 'residue_number': 42, 'insertion_code': ' ', 'chain_id': ' ', 'match_info': '{"39": ["pnipam", 11], "42": ["pnipam", 11]}', 'substructure_query_id': 11}, 149: {'residue_name': 'pnipam', 'residue_number': 42, 'insertion_code': ' ', 'chain_id': ' ', 'match_info': '{"39": ["pnipam", 17], "42": ["pnipam", 17]}', 'substructure_query_id': 17}, 150: {'residue_name': 'pnipam', 'residue_number': 42, 'insertion_code': ' ', 'chain_id': ' ', 'match_info': '{"39": ["pnipam", 18], "42": ["pnipam", 18]}', 'substructure_query_id': 18}, 151: {'residue_name': 'pnipam', 'residue_number': 42, 'insertion_code': ' ', 'chain_id': ' ', 'match_info': '{"39": ["pnipam", 19], "42": ["pnipam", 19]}', 'substructure_query_id': 19}, 152: {'residue_name': 'pnipam', 'residue_number': 44, 'insertion_code': ' ', 'chain_id': ' ', 'match_info': '{"43": ["pnipam", 1], "44": ["pnipam", 1]}', 'substructure_query_id': 1}, 153: {'residue_name': 'pnipam', 'residue_number': 44, 'insertion_code': ' ', 'chain_id': ' ', 'match_info': '{"41": ["pnipam", 4], "44": ["pnipam", 4]}', 'substructure_query_id': 4}, 154: {'residue_name': 'pnipam', 'residue_number': 44, 'insertion_code': ' ', 'chain_id': ' ', 'match_info': '{"43": ["pnipam", 2], "44": ["pnipam", 2]}', 'substructure_query_id': 2}, 155: {'residue_name': 'pnipam', 'residue_number': 44, 'insertion_code': ' ', 'chain_id': ' ', 'match_info': '{"43": ["pnipam", 3], "44": ["pnipam", 3]}', 'substructure_query_id': 3}, 156: {'residue_name': 'pnipam', 'residue_number': 44, 'insertion_code': ' ', 'chain_id': ' ', 'match_info': '{"8": ["PEPTIDE_BOND", 1], "41": ["pnipam", 6], "44": ["pnipam", 6]}', 'substructure_query_id': 6}, 157: {'residue_name': 'pnipam', 'residue_number': 44, 'insertion_code': ' ', 'chain_id': ' ', 'match_info': '{"8": ["PEPTIDE_BOND", 2], "41": ["pnipam", 7], "44": ["pnipam", 7]}', 'substructure_query_id': 7}, 158: {'residue_name': 'pnipam', 'residue_number': 44, 'insertion_code': ' ', 'chain_id': ' ', 'match_info': '{"8": ["PEPTIDE_BOND", 3], "41": ["pnipam", 8], "44": ["pnipam", 8]}', 'substructure_query_id': 8}, 159: {'residue_name': 'pnipam', 'residue_number': 44, 'insertion_code': ' ', 'chain_id': ' ', 'match_info': '{"41": ["pnipam", 5], "44": ["pnipam", 5]}', 'substructure_query_id': 5}, 160: {'residue_name': 'pnipam', 'residue_number': 44, 'insertion_code': ' ', 'chain_id': ' ', 'match_info': '{"8": ["PEPTIDE_BOND", 5], "41": ["pnipam", 10], "44": ["pnipam", 10]}', 'substructure_query_id': 10}, 161: {'residue_name': 'pnipam', 'residue_number': 44, 'insertion_code': ' ', 'chain_id': ' ', 'match_info': '{"8": ["PEPTIDE_BOND", 4], "41": ["pnipam", 9], "44": ["pnipam", 9]}', 'substructure_query_id': 9}, 162: {'residue_name': 'pnipam', 'residue_number': 44, 'insertion_code': ' ', 'chain_id': ' ', 'match_info': '{"41": ["pnipam", 12], "44": ["pnipam", 12]}', 'substructure_query_id': 12}, 163: {'residue_name': 'pnipam', 'residue_number': 44, 'insertion_code': ' ', 'chain_id': ' ', 'match_info': '{"41": ["pnipam", 13], "44": ["pnipam", 13]}', 'substructure_query_id': 13}, 164: {'residue_name': 'pnipam', 'residue_number': 44, 'insertion_code': ' ', 'chain_id': ' ', 'match_info': '{"41": ["pnipam", 14], "44": ["pnipam", 14]}', 'substructure_query_id': 14}, 165: {'residue_name': 'pnipam', 'residue_number': 44, 'insertion_code': ' ', 'chain_id': ' ', 'match_info': '{"41": ["pnipam", 15], "44": ["pnipam", 15]}', 'substructure_query_id': 15}, 166: {'residue_name': 'pnipam', 'residue_number': 44, 'insertion_code': ' ', 'chain_id': ' ', 'match_info': '{"41": ["pnipam", 16], "44": ["pnipam", 16]}', 'substructure_query_id': 16}, 167: {'residue_name': 'pnipam', 'residue_number': 44, 'insertion_code': ' ', 'chain_id': ' ', 'match_info': '{"41": ["pnipam", 11], "44": ["pnipam", 11]}', 'substructure_query_id': 11}, 168: {'residue_name': 'pnipam', 'residue_number': 44, 'insertion_code': ' ', 'chain_id': ' ', 'match_info': '{"41": ["pnipam", 17], "44": ["pnipam", 17]}', 'substructure_query_id': 17}, 169: {'residue_name': 'pnipam', 'residue_number': 44, 'insertion_code': ' ', 'chain_id': ' ', 'match_info': '{"41": ["pnipam", 18], "44": ["pnipam", 18]}', 'substructure_query_id': 18}, 170: {'residue_name': 'pnipam', 'residue_number': 44, 'insertion_code': ' ', 'chain_id': ' ', 'match_info': '{"41": ["pnipam", 19], "44": ["pnipam", 19]}', 'substructure_query_id': 19}, 171: {'residue_name': 'pnipam', 'residue_number': 46, 'insertion_code': ' ', 'chain_id': ' ', 'match_info': '{"45": ["pnipam", 1], "46": ["pnipam", 1]}', 'substructure_query_id': 1}, 172: {'residue_name': 'pnipam', 'residue_number': 46, 'insertion_code': ' ', 'chain_id': ' ', 'match_info': '{"43": ["pnipam", 4], "46": ["pnipam", 4]}', 'substructure_query_id': 4}, 173: {'residue_name': 'pnipam', 'residue_number': 46, 'insertion_code': ' ', 'chain_id': ' ', 'match_info': '{"45": ["pnipam", 2], "46": ["pnipam", 2]}', 'substructure_query_id': 2}, 174: {'residue_name': 'pnipam', 'residue_number': 46, 'insertion_code': ' ', 'chain_id': ' ', 'match_info': '{"45": ["pnipam", 3], "46": ["pnipam", 3]}', 'substructure_query_id': 3}, 175: {'residue_name': 'pnipam', 'residue_number': 46, 'insertion_code': ' ', 'chain_id': ' ', 'match_info': '{"9": ["PEPTIDE_BOND", 1], "43": ["pnipam", 6], "46": ["pnipam", 6]}', 'substructure_query_id': 6}, 176: {'residue_name': 'pnipam', 'residue_number': 46, 'insertion_code': ' ', 'chain_id': ' ', 'match_info': '{"9": ["PEPTIDE_BOND", 2], "43": ["pnipam", 7], "46": ["pnipam", 7]}', 'substructure_query_id': 7}, 177: {'residue_name': 'pnipam', 'residue_number': 46, 'insertion_code': ' ', 'chain_id': ' ', 'match_info': '{"9": ["PEPTIDE_BOND", 3], "43": ["pnipam", 8], "46": ["pnipam", 8]}', 'substructure_query_id': 8}, 178: {'residue_name': 'pnipam', 'residue_number': 46, 'insertion_code': ' ', 'chain_id': ' ', 'match_info': '{"43": ["pnipam", 5], "46": ["pnipam", 5]}', 'substructure_query_id': 5}, 179: {'residue_name': 'pnipam', 'residue_number': 46, 'insertion_code': ' ', 'chain_id': ' ', 'match_info': '{"9": ["PEPTIDE_BOND", 5], "43": ["pnipam", 10], "46": ["pnipam", 10]}', 'substructure_query_id': 10}, 180: {'residue_name': 'pnipam', 'residue_number': 46, 'insertion_code': ' ', 'chain_id': ' ', 'match_info': '{"9": ["PEPTIDE_BOND", 4], "43": ["pnipam", 9], "46": ["pnipam", 9]}', 'substructure_query_id': 9}, 181: {'residue_name': 'pnipam', 'residue_number': 46, 'insertion_code': ' ', 'chain_id': ' ', 'match_info': '{"43": ["pnipam", 12], "46": ["pnipam", 12]}', 'substructure_query_id': 12}, 182: {'residue_name': 'pnipam', 'residue_number': 46, 'insertion_code': ' ', 'chain_id': ' ', 'match_info': '{"43": ["pnipam", 13], "46": ["pnipam", 13]}', 'substructure_query_id': 13}, 183: {'residue_name': 'pnipam', 'residue_number': 46, 'insertion_code': ' ', 'chain_id': ' ', 'match_info': '{"43": ["pnipam", 14], "46": ["pnipam", 14]}', 'substructure_query_id': 14}, 184: {'residue_name': 'pnipam', 'residue_number': 46, 'insertion_code': ' ', 'chain_id': ' ', 'match_info': '{"43": ["pnipam", 15], "46": ["pnipam", 15]}', 'substructure_query_id': 15}, 185: {'residue_name': 'pnipam', 'residue_number': 46, 'insertion_code': ' ', 'chain_id': ' ', 'match_info': '{"43": ["pnipam", 16], "46": ["pnipam", 16]}', 'substructure_query_id': 16}, 186: {'residue_name': 'pnipam', 'residue_number': 46, 'insertion_code': ' ', 'chain_id': ' ', 'match_info': '{"43": ["pnipam", 11], "46": ["pnipam", 11]}', 'substructure_query_id': 11}, 187: {'residue_name': 'pnipam', 'residue_number': 46, 'insertion_code': ' ', 'chain_id': ' ', 'match_info': '{"43": ["pnipam", 17], "46": ["pnipam", 17]}', 'substructure_query_id': 17}, 188: {'residue_name': 'pnipam', 'residue_number': 46, 'insertion_code': ' ', 'chain_id': ' ', 'match_info': '{"43": ["pnipam", 18], "46": ["pnipam", 18]}', 'substructure_query_id': 18}, 189: {'residue_name': 'pnipam', 'residue_number': 46, 'insertion_code': ' ', 'chain_id': ' ', 'match_info': '{"43": ["pnipam", 19], "46": ["pnipam", 19]}', 'substructure_query_id': 19}, 190: {'residue_name': 'pnipam', 'residue_number': 48, 'insertion_code': ' ', 'chain_id': ' ', 'match_info': '{"47": ["pnipam", 1], "48": ["pnipam", 1]}', 'substructure_query_id': 1}, 191: {'residue_name': 'pnipam', 'residue_number': 48, 'insertion_code': ' ', 'chain_id': ' ', 'match_info': '{"45": ["pnipam", 4], "48": ["pnipam", 4]}', 'substructure_query_id': 4}, 192: {'residue_name': 'pnipam', 'residue_number': 48, 'insertion_code': ' ', 'chain_id': ' ', 'match_info': '{"47": ["pnipam", 2], "48": ["pnipam", 2]}', 'substructure_query_id': 2}, 193: {'residue_name': 'pnipam', 'residue_number': 48, 'insertion_code': ' ', 'chain_id': ' ', 'match_info': '{"47": ["pnipam", 3], "48": ["pnipam", 3]}', 'substructure_query_id': 3}, 194: {'residue_name': 'pnipam', 'residue_number': 48, 'insertion_code': ' ', 'chain_id': ' ', 'match_info': '{"10": ["PEPTIDE_BOND", 1], "45": ["pnipam", 6], "48": ["pnipam", 6]}', 'substructure_query_id': 6}, 195: {'residue_name': 'pnipam', 'residue_number': 48, 'insertion_code': ' ', 'chain_id': ' ', 'match_info': '{"10": ["PEPTIDE_BOND", 2], "45": ["pnipam", 7], "48": ["pnipam", 7]}', 'substructure_query_id': 7}, 196: {'residue_name': 'pnipam', 'residue_number': 48, 'insertion_code': ' ', 'chain_id': ' ', 'match_info': '{"10": ["PEPTIDE_BOND", 3], "45": ["pnipam", 8], "48": ["pnipam", 8]}', 'substructure_query_id': 8}, 197: {'residue_name': 'pnipam', 'residue_number': 48, 'insertion_code': ' ', 'chain_id': ' ', 'match_info': '{"45": ["pnipam", 5], "48": ["pnipam", 5]}', 'substructure_query_id': 5}, 198: {'residue_name': 'pnipam', 'residue_number': 48, 'insertion_code': ' ', 'chain_id': ' ', 'match_info': '{"10": ["PEPTIDE_BOND", 5], "45": ["pnipam", 10], "48": ["pnipam", 10]}', 'substructure_query_id': 10}, 199: {'residue_name': 'pnipam', 'residue_number': 48, 'insertion_code': ' ', 'chain_id': ' ', 'match_info': '{"10": ["PEPTIDE_BOND", 4], "45": ["pnipam", 9], "48": ["pnipam", 9]}', 'substructure_query_id': 9}, 200: {'residue_name': 'pnipam', 'residue_number': 48, 'insertion_code': ' ', 'chain_id': ' ', 'match_info': '{"45": ["pnipam", 12], "48": ["pnipam", 12]}', 'substructure_query_id': 12}, 201: {'residue_name': 'pnipam', 'residue_number': 48, 'insertion_code': ' ', 'chain_id': ' ', 'match_info': '{"45": ["pnipam", 13], "48": ["pnipam", 13]}', 'substructure_query_id': 13}, 202: {'residue_name': 'pnipam', 'residue_number': 48, 'insertion_code': ' ', 'chain_id': ' ', 'match_info': '{"45": ["pnipam", 14], "48": ["pnipam", 14]}', 'substructure_query_id': 14}, 203: {'residue_name': 'pnipam', 'residue_number': 48, 'insertion_code': ' ', 'chain_id': ' ', 'match_info': '{"45": ["pnipam", 15], "48": ["pnipam", 15]}', 'substructure_query_id': 15}, 204: {'residue_name': 'pnipam', 'residue_number': 48, 'insertion_code': ' ', 'chain_id': ' ', 'match_info': '{"45": ["pnipam", 16], "48": ["pnipam", 16]}', 'substructure_query_id': 16}, 205: {'residue_name': 'pnipam', 'residue_number': 48, 'insertion_code': ' ', 'chain_id': ' ', 'match_info': '{"45": ["pnipam", 11], "48": ["pnipam", 11]}', 'substructure_query_id': 11}, 206: {'residue_name': 'pnipam', 'residue_number': 48, 'insertion_code': ' ', 'chain_id': ' ', 'match_info': '{"45": ["pnipam", 17], "48": ["pnipam", 17]}', 'substructure_query_id': 17}, 207: {'residue_name': 'pnipam', 'residue_number': 48, 'insertion_code': ' ', 'chain_id': ' ', 'match_info': '{"45": ["pnipam", 18], "48": ["pnipam", 18]}', 'substructure_query_id': 18}, 208: {'residue_name': 'pnipam', 'residue_number': 48, 'insertion_code': ' ', 'chain_id': ' ', 'match_info': '{"45": ["pnipam", 19], "48": ["pnipam", 19]}', 'substructure_query_id': 19}, 209: {'residue_name': 'pnipam', 'residue_number': 50, 'insertion_code': ' ', 'chain_id': ' ', 'match_info': '{"49": ["pnipam", 1], "50": ["pnipam", 1]}', 'substructure_query_id': 1}, 210: {'residue_name': 'pnipam', 'residue_number': 50, 'insertion_code': ' ', 'chain_id': ' ', 'match_info': '{"47": ["pnipam", 4], "50": ["pnipam", 4]}', 'substructure_query_id': 4}, 211: {'residue_name': 'pnipam', 'residue_number': 50, 'insertion_code': ' ', 'chain_id': ' ', 'match_info': '{"49": ["pnipam", 2], "50": ["pnipam", 2]}', 'substructure_query_id': 2}, 212: {'residue_name': 'pnipam', 'residue_number': 50, 'insertion_code': ' ', 'chain_id': ' ', 'match_info': '{"49": ["pnipam", 3], "50": ["pnipam", 3]}', 'substructure_query_id': 3}, 213: {'residue_name': 'pnipam', 'residue_number': 50, 'insertion_code': ' ', 'chain_id': ' ', 'match_info': '{"11": ["PEPTIDE_BOND", 1], "47": ["pnipam", 6], "50": ["pnipam", 6]}', 'substructure_query_id': 6}, 214: {'residue_name': 'pnipam', 'residue_number': 50, 'insertion_code': ' ', 'chain_id': ' ', 'match_info': '{"11": ["PEPTIDE_BOND", 2], "47": ["pnipam", 7], "50": ["pnipam", 7]}', 'substructure_query_id': 7}, 215: {'residue_name': 'pnipam', 'residue_number': 50, 'insertion_code': ' ', 'chain_id': ' ', 'match_info': '{"11": ["PEPTIDE_BOND", 3], "47": ["pnipam", 8], "50": ["pnipam", 8]}', 'substructure_query_id': 8}, 216: {'residue_name': 'pnipam', 'residue_number': 50, 'insertion_code': ' ', 'chain_id': ' ', 'match_info': '{"47": ["pnipam", 5], "50": ["pnipam", 5]}', 'substructure_query_id': 5}, 217: {'residue_name': 'pnipam', 'residue_number': 50, 'insertion_code': ' ', 'chain_id': ' ', 'match_info': '{"11": ["PEPTIDE_BOND", 5], "47": ["pnipam", 10], "50": ["pnipam", 10]}', 'substructure_query_id': 10}, 218: {'residue_name': 'pnipam', 'residue_number': 50, 'insertion_code': ' ', 'chain_id': ' ', 'match_info': '{"11": ["PEPTIDE_BOND", 4], "47": ["pnipam", 9], "50": ["pnipam", 9]}', 'substructure_query_id': 9}, 219: {'residue_name': 'pnipam', 'residue_number': 50, 'insertion_code': ' ', 'chain_id': ' ', 'match_info': '{"47": ["pnipam", 12], "50": ["pnipam", 12]}', 'substructure_query_id': 12}, 220: {'residue_name': 'pnipam', 'residue_number': 50, 'insertion_code': ' ', 'chain_id': ' ', 'match_info': '{"47": ["pnipam", 13], "50": ["pnipam", 13]}', 'substructure_query_id': 13}, 221: {'residue_name': 'pnipam', 'residue_number': 50, 'insertion_code': ' ', 'chain_id': ' ', 'match_info': '{"47": ["pnipam", 14], "50": ["pnipam", 14]}', 'substructure_query_id': 14}, 222: {'residue_name': 'pnipam', 'residue_number': 50, 'insertion_code': ' ', 'chain_id': ' ', 'match_info': '{"47": ["pnipam", 15], "50": ["pnipam", 15]}', 'substructure_query_id': 15}, 223: {'residue_name': 'pnipam', 'residue_number': 50, 'insertion_code': ' ', 'chain_id': ' ', 'match_info': '{"47": ["pnipam", 16], "50": ["pnipam", 16]}', 'substructure_query_id': 16}, 224: {'residue_name': 'pnipam', 'residue_number': 50, 'insertion_code': ' ', 'chain_id': ' ', 'match_info': '{"47": ["pnipam", 11], "50": ["pnipam", 11]}', 'substructure_query_id': 11}, 225: {'residue_name': 'pnipam', 'residue_number': 50, 'insertion_code': ' ', 'chain_id': ' ', 'match_info': '{"47": ["pnipam", 17], "50": ["pnipam", 17]}', 'substructure_query_id': 17}, 226: {'residue_name': 'pnipam', 'residue_number': 50, 'insertion_code': ' ', 'chain_id': ' ', 'match_info': '{"47": ["pnipam", 18], "50": ["pnipam", 18]}', 'substructure_query_id': 18}, 227: {'residue_name': 'pnipam', 'residue_number': 50, 'insertion_code': ' ', 'chain_id': ' ', 'match_info': '{"47": ["pnipam", 19], "50": ["pnipam", 19]}', 'substructure_query_id': 19}, 228: {'residue_name': 'pnipam', 'residue_number': 52, 'insertion_code': ' ', 'chain_id': ' ', 'match_info': '{"51": ["pnipam", 1], "52": ["pnipam", 1]}', 'substructure_query_id': 1}, 229: {'residue_name': 'pnipam', 'residue_number': 52, 'insertion_code': ' ', 'chain_id': ' ', 'match_info': '{"49": ["pnipam", 4], "52": ["pnipam", 4]}', 'substructure_query_id': 4}, 230: {'residue_name': 'pnipam', 'residue_number': 52, 'insertion_code': ' ', 'chain_id': ' ', 'match_info': '{"51": ["pnipam", 2], "52": ["pnipam", 2]}', 'substructure_query_id': 2}, 231: {'residue_name': 'pnipam', 'residue_number': 52, 'insertion_code': ' ', 'chain_id': ' ', 'match_info': '{"51": ["pnipam", 3], "52": ["pnipam", 3]}', 'substructure_query_id': 3}, 232: {'residue_name': 'pnipam', 'residue_number': 52, 'insertion_code': ' ', 'chain_id': ' ', 'match_info': '{"12": ["PEPTIDE_BOND", 1], "49": ["pnipam", 6], "52": ["pnipam", 6]}', 'substructure_query_id': 6}, 233: {'residue_name': 'pnipam', 'residue_number': 52, 'insertion_code': ' ', 'chain_id': ' ', 'match_info': '{"12": ["PEPTIDE_BOND", 2], "49": ["pnipam", 7], "52": ["pnipam", 7]}', 'substructure_query_id': 7}, 234: {'residue_name': 'pnipam', 'residue_number': 52, 'insertion_code': ' ', 'chain_id': ' ', 'match_info': '{"12": ["PEPTIDE_BOND", 3], "49": ["pnipam", 8], "52": ["pnipam", 8]}', 'substructure_query_id': 8}, 235: {'residue_name': 'pnipam', 'residue_number': 52, 'insertion_code': ' ', 'chain_id': ' ', 'match_info': '{"49": ["pnipam", 5], "52": ["pnipam", 5]}', 'substructure_query_id': 5}, 236: {'residue_name': 'pnipam', 'residue_number': 52, 'insertion_code': ' ', 'chain_id': ' ', 'match_info': '{"12": ["PEPTIDE_BOND", 5], "49": ["pnipam", 10], "52": ["pnipam", 10]}', 'substructure_query_id': 10}, 237: {'residue_name': 'pnipam', 'residue_number': 52, 'insertion_code': ' ', 'chain_id': ' ', 'match_info': '{"12": ["PEPTIDE_BOND", 4], "49": ["pnipam", 9], "52": ["pnipam", 9]}', 'substructure_query_id': 9}, 238: {'residue_name': 'pnipam', 'residue_number': 52, 'insertion_code': ' ', 'chain_id': ' ', 'match_info': '{"49": ["pnipam", 12], "52": ["pnipam", 12]}', 'substructure_query_id': 12}, 239: {'residue_name': 'pnipam', 'residue_number': 52, 'insertion_code': ' ', 'chain_id': ' ', 'match_info': '{"49": ["pnipam", 13], "52": ["pnipam", 13]}', 'substructure_query_id': 13}, 240: {'residue_name': 'pnipam', 'residue_number': 52, 'insertion_code': ' ', 'chain_id': ' ', 'match_info': '{"49": ["pnipam", 14], "52": ["pnipam", 14]}', 'substructure_query_id': 14}, 241: {'residue_name': 'pnipam', 'residue_number': 52, 'insertion_code': ' ', 'chain_id': ' ', 'match_info': '{"49": ["pnipam", 15], "52": ["pnipam", 15]}', 'substructure_query_id': 15}, 242: {'residue_name': 'pnipam', 'residue_number': 52, 'insertion_code': ' ', 'chain_id': ' ', 'match_info': '{"49": ["pnipam", 16], "52": ["pnipam", 16]}', 'substructure_query_id': 16}, 243: {'residue_name': 'pnipam', 'residue_number': 52, 'insertion_code': ' ', 'chain_id': ' ', 'match_info': '{"49": ["pnipam", 11], "52": ["pnipam", 11]}', 'substructure_query_id': 11}, 244: {'residue_name': 'pnipam', 'residue_number': 52, 'insertion_code': ' ', 'chain_id': ' ', 'match_info': '{"49": ["pnipam", 17], "52": ["pnipam", 17]}', 'substructure_query_id': 17}, 245: {'residue_name': 'pnipam', 'residue_number': 52, 'insertion_code': ' ', 'chain_id': ' ', 'match_info': '{"49": ["pnipam", 18], "52": ["pnipam", 18]}', 'substructure_query_id': 18}, 246: {'residue_name': 'pnipam', 'residue_number': 52, 'insertion_code': ' ', 'chain_id': ' ', 'match_info': '{"49": ["pnipam", 19], "52": ["pnipam", 19]}', 'substructure_query_id': 19}, 247: {'residue_name': 'pnipam', 'residue_number': 54, 'insertion_code': ' ', 'chain_id': ' ', 'match_info': '{"53": ["pnipam", 1], "54": ["pnipam", 1]}', 'substructure_query_id': 1}, 248: {'residue_name': 'pnipam', 'residue_number': 54, 'insertion_code': ' ', 'chain_id': ' ', 'match_info': '{"51": ["pnipam", 4], "54": ["pnipam", 4]}', 'substructure_query_id': 4}, 249: {'residue_name': 'pnipam', 'residue_number': 54, 'insertion_code': ' ', 'chain_id': ' ', 'match_info': '{"53": ["pnipam", 2], "54": ["pnipam", 2]}', 'substructure_query_id': 2}, 250: {'residue_name': 'pnipam', 'residue_number': 54, 'insertion_code': ' ', 'chain_id': ' ', 'match_info': '{"53": ["pnipam", 3], "54": ["pnipam", 3]}', 'substructure_query_id': 3}, 251: {'residue_name': 'pnipam', 'residue_number': 54, 'insertion_code': ' ', 'chain_id': ' ', 'match_info': '{"13": ["PEPTIDE_BOND", 1], "51": ["pnipam", 6], "54": ["pnipam", 6]}', 'substructure_query_id': 6}, 252: {'residue_name': 'pnipam', 'residue_number': 54, 'insertion_code': ' ', 'chain_id': ' ', 'match_info': '{"13": ["PEPTIDE_BOND", 2], "51": ["pnipam", 7], "54": ["pnipam", 7]}', 'substructure_query_id': 7}, 253: {'residue_name': 'pnipam', 'residue_number': 54, 'insertion_code': ' ', 'chain_id': ' ', 'match_info': '{"13": ["PEPTIDE_BOND", 3], "51": ["pnipam", 8], "54": ["pnipam", 8]}', 'substructure_query_id': 8}, 254: {'residue_name': 'pnipam', 'residue_number': 54, 'insertion_code': ' ', 'chain_id': ' ', 'match_info': '{"51": ["pnipam", 5], "54": ["pnipam", 5]}', 'substructure_query_id': 5}, 255: {'residue_name': 'pnipam', 'residue_number': 54, 'insertion_code': ' ', 'chain_id': ' ', 'match_info': '{"13": ["PEPTIDE_BOND", 5], "51": ["pnipam", 10], "54": ["pnipam", 10]}', 'substructure_query_id': 10}, 256: {'residue_name': 'pnipam', 'residue_number': 54, 'insertion_code': ' ', 'chain_id': ' ', 'match_info': '{"13": ["PEPTIDE_BOND", 4], "51": ["pnipam", 9], "54": ["pnipam", 9]}', 'substructure_query_id': 9}, 257: {'residue_name': 'pnipam', 'residue_number': 54, 'insertion_code': ' ', 'chain_id': ' ', 'match_info': '{"51": ["pnipam", 12], "54": ["pnipam", 12]}', 'substructure_query_id': 12}, 258: {'residue_name': 'pnipam', 'residue_number': 54, 'insertion_code': ' ', 'chain_id': ' ', 'match_info': '{"51": ["pnipam", 13], "54": ["pnipam", 13]}', 'substructure_query_id': 13}, 259: {'residue_name': 'pnipam', 'residue_number': 54, 'insertion_code': ' ', 'chain_id': ' ', 'match_info': '{"51": ["pnipam", 14], "54": ["pnipam", 14]}', 'substructure_query_id': 14}, 260: {'residue_name': 'pnipam', 'residue_number': 54, 'insertion_code': ' ', 'chain_id': ' ', 'match_info': '{"51": ["pnipam", 15], "54": ["pnipam", 15]}', 'substructure_query_id': 15}, 261: {'residue_name': 'pnipam', 'residue_number': 54, 'insertion_code': ' ', 'chain_id': ' ', 'match_info': '{"51": ["pnipam", 16], "54": ["pnipam", 16]}', 'substructure_query_id': 16}, 262: {'residue_name': 'pnipam', 'residue_number': 54, 'insertion_code': ' ', 'chain_id': ' ', 'match_info': '{"51": ["pnipam", 11], "54": ["pnipam", 11]}', 'substructure_query_id': 11}, 263: {'residue_name': 'pnipam', 'residue_number': 54, 'insertion_code': ' ', 'chain_id': ' ', 'match_info': '{"51": ["pnipam", 17], "54": ["pnipam", 17]}', 'substructure_query_id': 17}, 264: {'residue_name': 'pnipam', 'residue_number': 54, 'insertion_code': ' ', 'chain_id': ' ', 'match_info': '{"51": ["pnipam", 18], "54": ["pnipam", 18]}', 'substructure_query_id': 18}, 265: {'residue_name': 'pnipam', 'residue_number': 54, 'insertion_code': ' ', 'chain_id': ' ', 'match_info': '{"51": ["pnipam", 19], "54": ["pnipam", 19]}', 'substructure_query_id': 19}, 266: {'residue_name': 'pnipam', 'residue_number': 56, 'insertion_code': ' ', 'chain_id': ' ', 'match_info': '{"55": ["pnipam", 1], "56": ["pnipam", 1]}', 'substructure_query_id': 1}, 267: {'residue_name': 'pnipam', 'residue_number': 56, 'insertion_code': ' ', 'chain_id': ' ', 'match_info': '{"53": ["pnipam", 4], "56": ["pnipam", 4]}', 'substructure_query_id': 4}, 268: {'residue_name': 'pnipam', 'residue_number': 56, 'insertion_code': ' ', 'chain_id': ' ', 'match_info': '{"55": ["pnipam", 2], "56": ["pnipam", 2]}', 'substructure_query_id': 2}, 269: {'residue_name': 'pnipam', 'residue_number': 56, 'insertion_code': ' ', 'chain_id': ' ', 'match_info': '{"55": ["pnipam", 3], "56": ["pnipam", 3]}', 'substructure_query_id': 3}, 270: {'residue_name': 'pnipam', 'residue_number': 56, 'insertion_code': ' ', 'chain_id': ' ', 'match_info': '{"14": ["PEPTIDE_BOND", 1], "53": ["pnipam", 6], "56": ["pnipam", 6]}', 'substructure_query_id': 6}, 271: {'residue_name': 'pnipam', 'residue_number': 56, 'insertion_code': ' ', 'chain_id': ' ', 'match_info': '{"14": ["PEPTIDE_BOND", 2], "53": ["pnipam", 7], "56": ["pnipam", 7]}', 'substructure_query_id': 7}, 272: {'residue_name': 'pnipam', 'residue_number': 56, 'insertion_code': ' ', 'chain_id': ' ', 'match_info': '{"14": ["PEPTIDE_BOND", 3], "53": ["pnipam", 8], "56": ["pnipam", 8]}', 'substructure_query_id': 8}, 273: {'residue_name': 'pnipam', 'residue_number': 56, 'insertion_code': ' ', 'chain_id': ' ', 'match_info': '{"53": ["pnipam", 5], "56": ["pnipam", 5]}', 'substructure_query_id': 5}, 274: {'residue_name': 'pnipam', 'residue_number': 56, 'insertion_code': ' ', 'chain_id': ' ', 'match_info': '{"14": ["PEPTIDE_BOND", 5], "53": ["pnipam", 10], "56": ["pnipam", 10]}', 'substructure_query_id': 10}, 275: {'residue_name': 'pnipam', 'residue_number': 56, 'insertion_code': ' ', 'chain_id': ' ', 'match_info': '{"14": ["PEPTIDE_BOND", 4], "53": ["pnipam", 9], "56": ["pnipam", 9]}', 'substructure_query_id': 9}, 276: {'residue_name': 'pnipam', 'residue_number': 56, 'insertion_code': ' ', 'chain_id': ' ', 'match_info': '{"53": ["pnipam", 12], "56": ["pnipam", 12]}', 'substructure_query_id': 12}, 277: {'residue_name': 'pnipam', 'residue_number': 56, 'insertion_code': ' ', 'chain_id': ' ', 'match_info': '{"53": ["pnipam", 13], "56": ["pnipam", 13]}', 'substructure_query_id': 13}, 278: {'residue_name': 'pnipam', 'residue_number': 56, 'insertion_code': ' ', 'chain_id': ' ', 'match_info': '{"53": ["pnipam", 14], "56": ["pnipam", 14]}', 'substructure_query_id': 14}, 279: {'residue_name': 'pnipam', 'residue_number': 56, 'insertion_code': ' ', 'chain_id': ' ', 'match_info': '{"53": ["pnipam", 15], "56": ["pnipam", 15]}', 'substructure_query_id': 15}, 280: {'residue_name': 'pnipam', 'residue_number': 56, 'insertion_code': ' ', 'chain_id': ' ', 'match_info': '{"53": ["pnipam", 16], "56": ["pnipam", 16]}', 'substructure_query_id': 16}, 281: {'residue_name': 'pnipam', 'residue_number': 56, 'insertion_code': ' ', 'chain_id': ' ', 'match_info': '{"53": ["pnipam", 11], "56": ["pnipam", 11]}', 'substructure_query_id': 11}, 282: {'residue_name': 'pnipam', 'residue_number': 56, 'insertion_code': ' ', 'chain_id': ' ', 'match_info': '{"53": ["pnipam", 17], "56": ["pnipam", 17]}', 'substructure_query_id': 17}, 283: {'residue_name': 'pnipam', 'residue_number': 56, 'insertion_code': ' ', 'chain_id': ' ', 'match_info': '{"53": ["pnipam", 18], "56": ["pnipam", 18]}', 'substructure_query_id': 18}, 284: {'residue_name': 'pnipam', 'residue_number': 56, 'insertion_code': ' ', 'chain_id': ' ', 'match_info': '{"53": ["pnipam", 19], "56": ["pnipam", 19]}', 'substructure_query_id': 19}, 285: {'residue_name': 'pnipam', 'residue_number': 58, 'insertion_code': ' ', 'chain_id': ' ', 'match_info': '{"57": ["pnipam", 1], "58": ["pnipam", 1]}', 'substructure_query_id': 1}, 286: {'residue_name': 'pnipam', 'residue_number': 58, 'insertion_code': ' ', 'chain_id': ' ', 'match_info': '{"55": ["pnipam", 4], "58": ["pnipam", 4]}', 'substructure_query_id': 4}, 287: {'residue_name': 'pnipam', 'residue_number': 58, 'insertion_code': ' ', 'chain_id': ' ', 'match_info': '{"57": ["pnipam", 2], "58": ["pnipam", 2]}', 'substructure_query_id': 2}, 288: {'residue_name': 'pnipam', 'residue_number': 58, 'insertion_code': ' ', 'chain_id': ' ', 'match_info': '{"57": ["pnipam", 3], "58": ["pnipam", 3]}', 'substructure_query_id': 3}, 289: {'residue_name': 'pnipam', 'residue_number': 58, 'insertion_code': ' ', 'chain_id': ' ', 'match_info': '{"15": ["PEPTIDE_BOND", 1], "55": ["pnipam", 6], "58": ["pnipam", 6]}', 'substructure_query_id': 6}, 290: {'residue_name': 'pnipam', 'residue_number': 58, 'insertion_code': ' ', 'chain_id': ' ', 'match_info': '{"15": ["PEPTIDE_BOND", 2], "55": ["pnipam", 7], "58": ["pnipam", 7]}', 'substructure_query_id': 7}, 291: {'residue_name': 'pnipam', 'residue_number': 58, 'insertion_code': ' ', 'chain_id': ' ', 'match_info': '{"15": ["PEPTIDE_BOND", 3], "55": ["pnipam", 8], "58": ["pnipam", 8]}', 'substructure_query_id': 8}, 292: {'residue_name': 'pnipam', 'residue_number': 58, 'insertion_code': ' ', 'chain_id': ' ', 'match_info': '{"55": ["pnipam", 5], "58": ["pnipam", 5]}', 'substructure_query_id': 5}, 293: {'residue_name': 'pnipam', 'residue_number': 58, 'insertion_code': ' ', 'chain_id': ' ', 'match_info': '{"15": ["PEPTIDE_BOND", 5], "55": ["pnipam", 10], "58": ["pnipam", 10]}', 'substructure_query_id': 10}, 294: {'residue_name': 'pnipam', 'residue_number': 58, 'insertion_code': ' ', 'chain_id': ' ', 'match_info': '{"15": ["PEPTIDE_BOND", 4], "55": ["pnipam", 9], "58": ["pnipam", 9]}', 'substructure_query_id': 9}, 295: {'residue_name': 'pnipam', 'residue_number': 58, 'insertion_code': ' ', 'chain_id': ' ', 'match_info': '{"55": ["pnipam", 12], "58": ["pnipam", 12]}', 'substructure_query_id': 12}, 296: {'residue_name': 'pnipam', 'residue_number': 58, 'insertion_code': ' ', 'chain_id': ' ', 'match_info': '{"55": ["pnipam", 13], "58": ["pnipam", 13]}', 'substructure_query_id': 13}, 297: {'residue_name': 'pnipam', 'residue_number': 58, 'insertion_code': ' ', 'chain_id': ' ', 'match_info': '{"55": ["pnipam", 14], "58": ["pnipam", 14]}', 'substructure_query_id': 14}, 298: {'residue_name': 'pnipam', 'residue_number': 58, 'insertion_code': ' ', 'chain_id': ' ', 'match_info': '{"55": ["pnipam", 15], "58": ["pnipam", 15]}', 'substructure_query_id': 15}, 299: {'residue_name': 'pnipam', 'residue_number': 58, 'insertion_code': ' ', 'chain_id': ' ', 'match_info': '{"55": ["pnipam", 16], "58": ["pnipam", 16]}', 'substructure_query_id': 16}, 300: {'residue_name': 'pnipam', 'residue_number': 58, 'insertion_code': ' ', 'chain_id': ' ', 'match_info': '{"55": ["pnipam", 11], "58": ["pnipam", 11]}', 'substructure_query_id': 11}, 301: {'residue_name': 'pnipam', 'residue_number': 58, 'insertion_code': ' ', 'chain_id': ' ', 'match_info': '{"55": ["pnipam", 17], "58": ["pnipam", 17]}', 'substructure_query_id': 17}, 302: {'residue_name': 'pnipam', 'residue_number': 58, 'insertion_code': ' ', 'chain_id': ' ', 'match_info': '{"55": ["pnipam", 18], "58": ["pnipam", 18]}', 'substructure_query_id': 18}, 303: {'residue_name': 'pnipam', 'residue_number': 58, 'insertion_code': ' ', 'chain_id': ' ', 'match_info': '{"55": ["pnipam", 19], "58": ["pnipam", 19]}', 'substructure_query_id': 19}, 304: {'residue_name': 'pnipam', 'residue_number': 60, 'insertion_code': ' ', 'chain_id': ' ', 'match_info': '{"59": ["pnipam", 1], "60": ["pnipam", 1]}', 'substructure_query_id': 1}, 305: {'residue_name': 'pnipam', 'residue_number': 60, 'insertion_code': ' ', 'chain_id': ' ', 'match_info': '{"57": ["pnipam", 4], "60": ["pnipam", 4]}', 'substructure_query_id': 4}, 306: {'residue_name': 'pnipam', 'residue_number': 60, 'insertion_code': ' ', 'chain_id': ' ', 'match_info': '{"59": ["pnipam", 2], "60": ["pnipam", 2]}', 'substructure_query_id': 2}, 307: {'residue_name': 'pnipam', 'residue_number': 60, 'insertion_code': ' ', 'chain_id': ' ', 'match_info': '{"59": ["pnipam", 3], "60": ["pnipam", 3]}', 'substructure_query_id': 3}, 308: {'residue_name': 'pnipam', 'residue_number': 60, 'insertion_code': ' ', 'chain_id': ' ', 'match_info': '{"16": ["PEPTIDE_BOND", 1], "57": ["pnipam", 6], "60": ["pnipam", 6]}', 'substructure_query_id': 6}, 309: {'residue_name': 'pnipam', 'residue_number': 60, 'insertion_code': ' ', 'chain_id': ' ', 'match_info': '{"16": ["PEPTIDE_BOND", 2], "57": ["pnipam", 7], "60": ["pnipam", 7]}', 'substructure_query_id': 7}, 310: {'residue_name': 'pnipam', 'residue_number': 60, 'insertion_code': ' ', 'chain_id': ' ', 'match_info': '{"16": ["PEPTIDE_BOND", 3], "57": ["pnipam", 8], "60": ["pnipam", 8]}', 'substructure_query_id': 8}, 311: {'residue_name': 'pnipam', 'residue_number': 60, 'insertion_code': ' ', 'chain_id': ' ', 'match_info': '{"57": ["pnipam", 5], "60": ["pnipam", 5]}', 'substructure_query_id': 5}, 312: {'residue_name': 'pnipam', 'residue_number': 60, 'insertion_code': ' ', 'chain_id': ' ', 'match_info': '{"16": ["PEPTIDE_BOND", 5], "57": ["pnipam", 10], "60": ["pnipam", 10]}', 'substructure_query_id': 10}, 313: {'residue_name': 'pnipam', 'residue_number': 60, 'insertion_code': ' ', 'chain_id': ' ', 'match_info': '{"16": ["PEPTIDE_BOND", 4], "57": ["pnipam", 9], "60": ["pnipam", 9]}', 'substructure_query_id': 9}, 314: {'residue_name': 'pnipam', 'residue_number': 60, 'insertion_code': ' ', 'chain_id': ' ', 'match_info': '{"57": ["pnipam", 12], "60": ["pnipam", 12]}', 'substructure_query_id': 12}, 315: {'residue_name': 'pnipam', 'residue_number': 60, 'insertion_code': ' ', 'chain_id': ' ', 'match_info': '{"57": ["pnipam", 13], "60": ["pnipam", 13]}', 'substructure_query_id': 13}, 316: {'residue_name': 'pnipam', 'residue_number': 60, 'insertion_code': ' ', 'chain_id': ' ', 'match_info': '{"57": ["pnipam", 14], "60": ["pnipam", 14]}', 'substructure_query_id': 14}, 317: {'residue_name': 'pnipam', 'residue_number': 60, 'insertion_code': ' ', 'chain_id': ' ', 'match_info': '{"57": ["pnipam", 15], "60": ["pnipam", 15]}', 'substructure_query_id': 15}, 318: {'residue_name': 'pnipam', 'residue_number': 60, 'insertion_code': ' ', 'chain_id': ' ', 'match_info': '{"57": ["pnipam", 16], "60": ["pnipam", 16]}', 'substructure_query_id': 16}, 319: {'residue_name': 'pnipam', 'residue_number': 60, 'insertion_code': ' ', 'chain_id': ' ', 'match_info': '{"57": ["pnipam", 11], "60": ["pnipam", 11]}', 'substructure_query_id': 11}, 320: {'residue_name': 'pnipam', 'residue_number': 60, 'insertion_code': ' ', 'chain_id': ' ', 'match_info': '{"57": ["pnipam", 17], "60": ["pnipam", 17]}', 'substructure_query_id': 17}, 321: {'residue_name': 'pnipam', 'residue_number': 60, 'insertion_code': ' ', 'chain_id': ' ', 'match_info': '{"57": ["pnipam", 18], "60": ["pnipam", 18]}', 'substructure_query_id': 18}, 322: {'residue_name': 'pnipam', 'residue_number': 60, 'insertion_code': ' ', 'chain_id': ' ', 'match_info': '{"57": ["pnipam", 19], "60": ["pnipam", 19]}', 'substructure_query_id': 19}, 323: {'residue_name': 'pnipam', 'residue_number': 62, 'insertion_code': ' ', 'chain_id': ' ', 'match_info': '{"61": ["pnipam", 1], "62": ["pnipam", 1]}', 'substructure_query_id': 1}, 324: {'residue_name': 'pnipam', 'residue_number': 62, 'insertion_code': ' ', 'chain_id': ' ', 'match_info': '{"59": ["pnipam", 4], "62": ["pnipam", 4]}', 'substructure_query_id': 4}, 325: {'residue_name': 'pnipam', 'residue_number': 62, 'insertion_code': ' ', 'chain_id': ' ', 'match_info': '{"61": ["pnipam", 2], "62": ["pnipam", 2]}', 'substructure_query_id': 2}, 326: {'residue_name': 'pnipam', 'residue_number': 62, 'insertion_code': ' ', 'chain_id': ' ', 'match_info': '{"61": ["pnipam", 3], "62": ["pnipam", 3]}', 'substructure_query_id': 3}, 327: {'residue_name': 'pnipam', 'residue_number': 62, 'insertion_code': ' ', 'chain_id': ' ', 'match_info': '{"17": ["PEPTIDE_BOND", 1], "59": ["pnipam", 6], "62": ["pnipam", 6]}', 'substructure_query_id': 6}, 328: {'residue_name': 'pnipam', 'residue_number': 62, 'insertion_code': ' ', 'chain_id': ' ', 'match_info': '{"17": ["PEPTIDE_BOND", 2], "59": ["pnipam", 7], "62": ["pnipam", 7]}', 'substructure_query_id': 7}, 329: {'residue_name': 'pnipam', 'residue_number': 62, 'insertion_code': ' ', 'chain_id': ' ', 'match_info': '{"17": ["PEPTIDE_BOND", 3], "59": ["pnipam", 8], "62": ["pnipam", 8]}', 'substructure_query_id': 8}, 330: {'residue_name': 'pnipam', 'residue_number': 62, 'insertion_code': ' ', 'chain_id': ' ', 'match_info': '{"59": ["pnipam", 5], "62": ["pnipam", 5]}', 'substructure_query_id': 5}, 331: {'residue_name': 'pnipam', 'residue_number': 62, 'insertion_code': ' ', 'chain_id': ' ', 'match_info': '{"17": ["PEPTIDE_BOND", 5], "59": ["pnipam", 10], "62": ["pnipam", 10]}', 'substructure_query_id': 10}, 332: {'residue_name': 'pnipam', 'residue_number': 62, 'insertion_code': ' ', 'chain_id': ' ', 'match_info': '{"17": ["PEPTIDE_BOND", 4], "59": ["pnipam", 9], "62": ["pnipam", 9]}', 'substructure_query_id': 9}, 333: {'residue_name': 'pnipam', 'residue_number': 62, 'insertion_code': ' ', 'chain_id': ' ', 'match_info': '{"59": ["pnipam", 12], "62": ["pnipam", 12]}', 'substructure_query_id': 12}, 334: {'residue_name': 'pnipam', 'residue_number': 62, 'insertion_code': ' ', 'chain_id': ' ', 'match_info': '{"59": ["pnipam", 13], "62": ["pnipam", 13]}', 'substructure_query_id': 13}, 335: {'residue_name': 'pnipam', 'residue_number': 62, 'insertion_code': ' ', 'chain_id': ' ', 'match_info': '{"59": ["pnipam", 14], "62": ["pnipam", 14]}', 'substructure_query_id': 14}, 336: {'residue_name': 'pnipam', 'residue_number': 62, 'insertion_code': ' ', 'chain_id': ' ', 'match_info': '{"59": ["pnipam", 15], "62": ["pnipam", 15]}', 'substructure_query_id': 15}, 337: {'residue_name': 'pnipam', 'residue_number': 62, 'insertion_code': ' ', 'chain_id': ' ', 'match_info': '{"59": ["pnipam", 16], "62": ["pnipam", 16]}', 'substructure_query_id': 16}, 338: {'residue_name': 'pnipam', 'residue_number': 62, 'insertion_code': ' ', 'chain_id': ' ', 'match_info': '{"59": ["pnipam", 11], "62": ["pnipam", 11]}', 'substructure_query_id': 11}, 339: {'residue_name': 'pnipam', 'residue_number': 62, 'insertion_code': ' ', 'chain_id': ' ', 'match_info': '{"59": ["pnipam", 17], "62": ["pnipam", 17]}', 'substructure_query_id': 17}, 340: {'residue_name': 'pnipam', 'residue_number': 62, 'insertion_code': ' ', 'chain_id': ' ', 'match_info': '{"59": ["pnipam", 18], "62": ["pnipam", 18]}', 'substructure_query_id': 18}, 341: {'residue_name': 'pnipam', 'residue_number': 62, 'insertion_code': ' ', 'chain_id': ' ', 'match_info': '{"59": ["pnipam", 19], "62": ["pnipam", 19]}', 'substructure_query_id': 19}, 342: {'residue_name': 'pnipam', 'residue_number': 64, 'insertion_code': ' ', 'chain_id': ' ', 'match_info': '{"63": ["pnipam", 1], "64": ["pnipam", 1]}', 'substructure_query_id': 1}, 343: {'residue_name': 'pnipam', 'residue_number': 64, 'insertion_code': ' ', 'chain_id': ' ', 'match_info': '{"61": ["pnipam", 4], "64": ["pnipam", 4]}', 'substructure_query_id': 4}, 344: {'residue_name': 'pnipam', 'residue_number': 64, 'insertion_code': ' ', 'chain_id': ' ', 'match_info': '{"63": ["pnipam", 2], "64": ["pnipam", 2]}', 'substructure_query_id': 2}, 345: {'residue_name': 'pnipam', 'residue_number': 64, 'insertion_code': ' ', 'chain_id': ' ', 'match_info': '{"63": ["pnipam", 3], "64": ["pnipam", 3]}', 'substructure_query_id': 3}, 346: {'residue_name': 'pnipam', 'residue_number': 64, 'insertion_code': ' ', 'chain_id': ' ', 'match_info': '{"18": ["PEPTIDE_BOND", 1], "61": ["pnipam", 6], "64": ["pnipam", 6]}', 'substructure_query_id': 6}, 347: {'residue_name': 'pnipam', 'residue_number': 64, 'insertion_code': ' ', 'chain_id': ' ', 'match_info': '{"18": ["PEPTIDE_BOND", 2], "61": ["pnipam", 7], "64": ["pnipam", 7]}', 'substructure_query_id': 7}, 348: {'residue_name': 'pnipam', 'residue_number': 64, 'insertion_code': ' ', 'chain_id': ' ', 'match_info': '{"18": ["PEPTIDE_BOND", 3], "61": ["pnipam", 8], "64": ["pnipam", 8]}', 'substructure_query_id': 8}, 349: {'residue_name': 'pnipam', 'residue_number': 64, 'insertion_code': ' ', 'chain_id': ' ', 'match_info': '{"61": ["pnipam", 5], "64": ["pnipam", 5]}', 'substructure_query_id': 5}, 350: {'residue_name': 'pnipam', 'residue_number': 64, 'insertion_code': ' ', 'chain_id': ' ', 'match_info': '{"18": ["PEPTIDE_BOND", 5], "61": ["pnipam", 10], "64": ["pnipam", 10]}', 'substructure_query_id': 10}, 351: {'residue_name': 'pnipam', 'residue_number': 64, 'insertion_code': ' ', 'chain_id': ' ', 'match_info': '{"18": ["PEPTIDE_BOND", 4], "61": ["pnipam", 9], "64": ["pnipam", 9]}', 'substructure_query_id': 9}, 352: {'residue_name': 'pnipam', 'residue_number': 64, 'insertion_code': ' ', 'chain_id': ' ', 'match_info': '{"61": ["pnipam", 12], "64": ["pnipam", 12]}', 'substructure_query_id': 12}, 353: {'residue_name': 'pnipam', 'residue_number': 64, 'insertion_code': ' ', 'chain_id': ' ', 'match_info': '{"61": ["pnipam", 13], "64": ["pnipam", 13]}', 'substructure_query_id': 13}, 354: {'residue_name': 'pnipam', 'residue_number': 64, 'insertion_code': ' ', 'chain_id': ' ', 'match_info': '{"61": ["pnipam", 14], "64": ["pnipam", 14]}', 'substructure_query_id': 14}, 355: {'residue_name': 'pnipam', 'residue_number': 64, 'insertion_code': ' ', 'chain_id': ' ', 'match_info': '{"61": ["pnipam", 15], "64": ["pnipam", 15]}', 'substructure_query_id': 15}, 356: {'residue_name': 'pnipam', 'residue_number': 64, 'insertion_code': ' ', 'chain_id': ' ', 'match_info': '{"61": ["pnipam", 16], "64": ["pnipam", 16]}', 'substructure_query_id': 16}, 357: {'residue_name': 'pnipam', 'residue_number': 64, 'insertion_code': ' ', 'chain_id': ' ', 'match_info': '{"61": ["pnipam", 11], "64": ["pnipam", 11]}', 'substructure_query_id': 11}, 358: {'residue_name': 'pnipam', 'residue_number': 64, 'insertion_code': ' ', 'chain_id': ' ', 'match_info': '{"61": ["pnipam", 17], "64": ["pnipam", 17]}', 'substructure_query_id': 17}, 359: {'residue_name': 'pnipam', 'residue_number': 64, 'insertion_code': ' ', 'chain_id': ' ', 'match_info': '{"61": ["pnipam", 18], "64": ["pnipam", 18]}', 'substructure_query_id': 18}, 360: {'residue_name': 'pnipam', 'residue_number': 64, 'insertion_code': ' ', 'chain_id': ' ', 'match_info': '{"61": ["pnipam", 19], "64": ["pnipam", 19]}', 'substructure_query_id': 19}, 361: {'residue_name': 'pnipam', 'residue_number': 66, 'insertion_code': ' ', 'chain_id': ' ', 'match_info': '{"65": ["pnipam", 1], "66": ["pnipam", 1]}', 'substructure_query_id': 1}, 362: {'residue_name': 'pnipam', 'residue_number': 66, 'insertion_code': ' ', 'chain_id': ' ', 'match_info': '{"63": ["pnipam", 4], "66": ["pnipam", 4]}', 'substructure_query_id': 4}, 363: {'residue_name': 'pnipam', 'residue_number': 66, 'insertion_code': ' ', 'chain_id': ' ', 'match_info': '{"65": ["pnipam", 2], "66": ["pnipam", 2]}', 'substructure_query_id': 2}, 364: {'residue_name': 'pnipam', 'residue_number': 66, 'insertion_code': ' ', 'chain_id': ' ', 'match_info': '{"65": ["pnipam", 3], "66": ["pnipam", 3]}', 'substructure_query_id': 3}, 365: {'residue_name': 'pnipam', 'residue_number': 66, 'insertion_code': ' ', 'chain_id': ' ', 'match_info': '{"19": ["PEPTIDE_BOND", 1], "63": ["pnipam", 6], "66": ["pnipam", 6]}', 'substructure_query_id': 6}, 366: {'residue_name': 'pnipam', 'residue_number': 66, 'insertion_code': ' ', 'chain_id': ' ', 'match_info': '{"19": ["PEPTIDE_BOND", 2], "63": ["pnipam", 7], "66": ["pnipam", 7]}', 'substructure_query_id': 7}, 367: {'residue_name': 'pnipam', 'residue_number': 66, 'insertion_code': ' ', 'chain_id': ' ', 'match_info': '{"19": ["PEPTIDE_BOND", 3], "63": ["pnipam", 8], "66": ["pnipam", 8]}', 'substructure_query_id': 8}, 368: {'residue_name': 'pnipam', 'residue_number': 66, 'insertion_code': ' ', 'chain_id': ' ', 'match_info': '{"63": ["pnipam", 5], "66": ["pnipam", 5]}', 'substructure_query_id': 5}, 369: {'residue_name': 'pnipam', 'residue_number': 66, 'insertion_code': ' ', 'chain_id': ' ', 'match_info': '{"19": ["PEPTIDE_BOND", 5], "63": ["pnipam", 10], "66": ["pnipam", 10]}', 'substructure_query_id': 10}, 370: {'residue_name': 'pnipam', 'residue_number': 66, 'insertion_code': ' ', 'chain_id': ' ', 'match_info': '{"19": ["PEPTIDE_BOND", 4], "63": ["pnipam", 9], "66": ["pnipam", 9]}', 'substructure_query_id': 9}, 371: {'residue_name': 'pnipam', 'residue_number': 66, 'insertion_code': ' ', 'chain_id': ' ', 'match_info': '{"63": ["pnipam", 12], "66": ["pnipam", 12]}', 'substructure_query_id': 12}, 372: {'residue_name': 'pnipam', 'residue_number': 66, 'insertion_code': ' ', 'chain_id': ' ', 'match_info': '{"63": ["pnipam", 13], "66": ["pnipam", 13]}', 'substructure_query_id': 13}, 373: {'residue_name': 'pnipam', 'residue_number': 66, 'insertion_code': ' ', 'chain_id': ' ', 'match_info': '{"63": ["pnipam", 14], "66": ["pnipam", 14]}', 'substructure_query_id': 14}, 374: {'residue_name': 'pnipam', 'residue_number': 66, 'insertion_code': ' ', 'chain_id': ' ', 'match_info': '{"63": ["pnipam", 15], "66": ["pnipam", 15]}', 'substructure_query_id': 15}, 375: {'residue_name': 'pnipam', 'residue_number': 66, 'insertion_code': ' ', 'chain_id': ' ', 'match_info': '{"63": ["pnipam", 16], "66": ["pnipam", 16]}', 'substructure_query_id': 16}, 376: {'residue_name': 'pnipam', 'residue_number': 66, 'insertion_code': ' ', 'chain_id': ' ', 'match_info': '{"63": ["pnipam", 11], "66": ["pnipam", 11]}', 'substructure_query_id': 11}, 377: {'residue_name': 'pnipam', 'residue_number': 66, 'insertion_code': ' ', 'chain_id': ' ', 'match_info': '{"63": ["pnipam", 17], "66": ["pnipam", 17]}', 'substructure_query_id': 17}, 378: {'residue_name': 'pnipam', 'residue_number': 66, 'insertion_code': ' ', 'chain_id': ' ', 'match_info': '{"63": ["pnipam", 18], "66": ["pnipam", 18]}', 'substructure_query_id': 18}, 379: {'residue_name': 'pnipam', 'residue_number': 66, 'insertion_code': ' ', 'chain_id': ' ', 'match_info': '{"63": ["pnipam", 19], "66": ["pnipam", 19]}', 'substructure_query_id': 19}, 380: {'residue_name': 'pnipam', 'residue_number': 68, 'insertion_code': ' ', 'chain_id': ' ', 'match_info': '{"67": ["pnipam", 1], "68": ["pnipam", 1]}', 'substructure_query_id': 1}, 381: {'residue_name': 'pnipam', 'residue_number': 68, 'insertion_code': ' ', 'chain_id': ' ', 'match_info': '{"65": ["pnipam", 4], "68": ["pnipam", 4]}', 'substructure_query_id': 4}, 382: {'residue_name': 'pnipam', 'residue_number': 68, 'insertion_code': ' ', 'chain_id': ' ', 'match_info': '{"67": ["pnipam", 2], "68": ["pnipam", 2]}', 'substructure_query_id': 2}, 383: {'residue_name': 'pnipam', 'residue_number': 68, 'insertion_code': ' ', 'chain_id': ' ', 'match_info': '{"67": ["pnipam", 3], "68": ["pnipam", 3]}', 'substructure_query_id': 3}, 384: {'residue_name': 'pnipam', 'residue_number': 68, 'insertion_code': ' ', 'chain_id': ' ', 'match_info': '{"20": ["PEPTIDE_BOND", 1], "65": ["pnipam", 6], "68": ["pnipam", 6]}', 'substructure_query_id': 6}, 385: {'residue_name': 'pnipam', 'residue_number': 68, 'insertion_code': ' ', 'chain_id': ' ', 'match_info': '{"20": ["PEPTIDE_BOND", 2], "65": ["pnipam", 7], "68": ["pnipam", 7]}', 'substructure_query_id': 7}, 386: {'residue_name': 'pnipam', 'residue_number': 68, 'insertion_code': ' ', 'chain_id': ' ', 'match_info': '{"20": ["PEPTIDE_BOND", 3], "65": ["pnipam", 8], "68": ["pnipam", 8]}', 'substructure_query_id': 8}, 387: {'residue_name': 'pnipam', 'residue_number': 68, 'insertion_code': ' ', 'chain_id': ' ', 'match_info': '{"65": ["pnipam", 5], "68": ["pnipam", 5]}', 'substructure_query_id': 5}, 388: {'residue_name': 'pnipam', 'residue_number': 68, 'insertion_code': ' ', 'chain_id': ' ', 'match_info': '{"20": ["PEPTIDE_BOND", 5], "65": ["pnipam", 10], "68": ["pnipam", 10]}', 'substructure_query_id': 10}, 389: {'residue_name': 'pnipam', 'residue_number': 68, 'insertion_code': ' ', 'chain_id': ' ', 'match_info': '{"20": ["PEPTIDE_BOND", 4], "65": ["pnipam", 9], "68": ["pnipam", 9]}', 'substructure_query_id': 9}, 390: {'residue_name': 'pnipam', 'residue_number': 68, 'insertion_code': ' ', 'chain_id': ' ', 'match_info': '{"65": ["pnipam", 12], "68": ["pnipam", 12]}', 'substructure_query_id': 12}, 391: {'residue_name': 'pnipam', 'residue_number': 68, 'insertion_code': ' ', 'chain_id': ' ', 'match_info': '{"65": ["pnipam", 13], "68": ["pnipam", 13]}', 'substructure_query_id': 13}, 392: {'residue_name': 'pnipam', 'residue_number': 68, 'insertion_code': ' ', 'chain_id': ' ', 'match_info': '{"65": ["pnipam", 14], "68": ["pnipam", 14]}', 'substructure_query_id': 14}, 393: {'residue_name': 'pnipam', 'residue_number': 68, 'insertion_code': ' ', 'chain_id': ' ', 'match_info': '{"65": ["pnipam", 15], "68": ["pnipam", 15]}', 'substructure_query_id': 15}, 394: {'residue_name': 'pnipam', 'residue_number': 68, 'insertion_code': ' ', 'chain_id': ' ', 'match_info': '{"65": ["pnipam", 16], "68": ["pnipam", 16]}', 'substructure_query_id': 16}, 395: {'residue_name': 'pnipam', 'residue_number': 68, 'insertion_code': ' ', 'chain_id': ' ', 'match_info': '{"65": ["pnipam", 11], "68": ["pnipam", 11]}', 'substructure_query_id': 11}, 396: {'residue_name': 'pnipam', 'residue_number': 68, 'insertion_code': ' ', 'chain_id': ' ', 'match_info': '{"65": ["pnipam", 17], "68": ["pnipam", 17]}', 'substructure_query_id': 17}, 397: {'residue_name': 'pnipam', 'residue_number': 68, 'insertion_code': ' ', 'chain_id': ' ', 'match_info': '{"65": ["pnipam", 18], "68": ["pnipam", 18]}', 'substructure_query_id': 18}, 398: {'residue_name': 'pnipam', 'residue_number': 68, 'insertion_code': ' ', 'chain_id': ' ', 'match_info': '{"65": ["pnipam", 19], "68": ["pnipam", 19]}', 'substructure_query_id': 19}, 399: {'residue_name': 'pnipam', 'residue_number': 70, 'insertion_code': ' ', 'chain_id': ' ', 'match_info': '{"69": ["pnipam", 1], "70": ["pnipam", 1]}', 'substructure_query_id': 1}, 400: {'residue_name': 'pnipam', 'residue_number': 70, 'insertion_code': ' ', 'chain_id': ' ', 'match_info': '{"67": ["pnipam", 4], "70": ["pnipam", 4]}', 'substructure_query_id': 4}, 401: {'residue_name': 'pnipam', 'residue_number': 70, 'insertion_code': ' ', 'chain_id': ' ', 'match_info': '{"69": ["pnipam", 2], "70": ["pnipam", 2]}', 'substructure_query_id': 2}, 402: {'residue_name': 'pnipam', 'residue_number': 70, 'insertion_code': ' ', 'chain_id': ' ', 'match_info': '{"69": ["pnipam", 3], "70": ["pnipam", 3]}', 'substructure_query_id': 3}, 403: {'residue_name': 'pnipam', 'residue_number': 70, 'insertion_code': ' ', 'chain_id': ' ', 'match_info': '{"21": ["PEPTIDE_BOND", 1], "67": ["pnipam", 6], "70": ["pnipam", 6]}', 'substructure_query_id': 6}, 404: {'residue_name': 'pnipam', 'residue_number': 70, 'insertion_code': ' ', 'chain_id': ' ', 'match_info': '{"21": ["PEPTIDE_BOND", 2], "67": ["pnipam", 7], "70": ["pnipam", 7]}', 'substructure_query_id': 7}, 405: {'residue_name': 'pnipam', 'residue_number': 70, 'insertion_code': ' ', 'chain_id': ' ', 'match_info': '{"21": ["PEPTIDE_BOND", 3], "67": ["pnipam", 8], "70": ["pnipam", 8]}', 'substructure_query_id': 8}, 406: {'residue_name': 'pnipam', 'residue_number': 70, 'insertion_code': ' ', 'chain_id': ' ', 'match_info': '{"67": ["pnipam", 5], "70": ["pnipam", 5]}', 'substructure_query_id': 5}, 407: {'residue_name': 'pnipam', 'residue_number': 70, 'insertion_code': ' ', 'chain_id': ' ', 'match_info': '{"21": ["PEPTIDE_BOND", 5], "67": ["pnipam", 10], "70": ["pnipam", 10]}', 'substructure_query_id': 10}, 408: {'residue_name': 'pnipam', 'residue_number': 70, 'insertion_code': ' ', 'chain_id': ' ', 'match_info': '{"21": ["PEPTIDE_BOND", 4], "67": ["pnipam", 9], "70": ["pnipam", 9]}', 'substructure_query_id': 9}, 409: {'residue_name': 'pnipam', 'residue_number': 70, 'insertion_code': ' ', 'chain_id': ' ', 'match_info': '{"67": ["pnipam", 12], "70": ["pnipam", 12]}', 'substructure_query_id': 12}, 410: {'residue_name': 'pnipam', 'residue_number': 70, 'insertion_code': ' ', 'chain_id': ' ', 'match_info': '{"67": ["pnipam", 13], "70": ["pnipam", 13]}', 'substructure_query_id': 13}, 411: {'residue_name': 'pnipam', 'residue_number': 70, 'insertion_code': ' ', 'chain_id': ' ', 'match_info': '{"67": ["pnipam", 14], "70": ["pnipam", 14]}', 'substructure_query_id': 14}, 412: {'residue_name': 'pnipam', 'residue_number': 70, 'insertion_code': ' ', 'chain_id': ' ', 'match_info': '{"67": ["pnipam", 15], "70": ["pnipam", 15]}', 'substructure_query_id': 15}, 413: {'residue_name': 'pnipam', 'residue_number': 70, 'insertion_code': ' ', 'chain_id': ' ', 'match_info': '{"67": ["pnipam", 16], "70": ["pnipam", 16]}', 'substructure_query_id': 16}, 414: {'residue_name': 'pnipam', 'residue_number': 70, 'insertion_code': ' ', 'chain_id': ' ', 'match_info': '{"67": ["pnipam", 11], "70": ["pnipam", 11]}', 'substructure_query_id': 11}, 415: {'residue_name': 'pnipam', 'residue_number': 70, 'insertion_code': ' ', 'chain_id': ' ', 'match_info': '{"67": ["pnipam", 17], "70": ["pnipam", 17]}', 'substructure_query_id': 17}, 416: {'residue_name': 'pnipam', 'residue_number': 70, 'insertion_code': ' ', 'chain_id': ' ', 'match_info': '{"67": ["pnipam", 18], "70": ["pnipam", 18]}', 'substructure_query_id': 18}, 417: {'residue_name': 'pnipam', 'residue_number': 70, 'insertion_code': ' ', 'chain_id': ' ', 'match_info': '{"67": ["pnipam", 19], "70": ["pnipam", 19]}', 'substructure_query_id': 19}, 418: {'residue_name': 'pnipam', 'residue_number': 72, 'insertion_code': ' ', 'chain_id': ' ', 'match_info': '{"71": ["pnipam", 1], "72": ["pnipam", 1]}', 'substructure_query_id': 1}, 419: {'residue_name': 'pnipam', 'residue_number': 72, 'insertion_code': ' ', 'chain_id': ' ', 'match_info': '{"69": ["pnipam", 4], "72": ["pnipam", 4]}', 'substructure_query_id': 4}, 420: {'residue_name': 'pnipam', 'residue_number': 72, 'insertion_code': ' ', 'chain_id': ' ', 'match_info': '{"71": ["pnipam", 2], "72": ["pnipam", 2]}', 'substructure_query_id': 2}, 421: {'residue_name': 'pnipam', 'residue_number': 72, 'insertion_code': ' ', 'chain_id': ' ', 'match_info': '{"71": ["pnipam", 3], "72": ["pnipam", 3]}', 'substructure_query_id': 3}, 422: {'residue_name': 'pnipam', 'residue_number': 72, 'insertion_code': ' ', 'chain_id': ' ', 'match_info': '{"22": ["PEPTIDE_BOND", 1], "69": ["pnipam", 6], "72": ["pnipam", 6]}', 'substructure_query_id': 6}, 423: {'residue_name': 'pnipam', 'residue_number': 72, 'insertion_code': ' ', 'chain_id': ' ', 'match_info': '{"22": ["PEPTIDE_BOND", 2], "69": ["pnipam", 7], "72": ["pnipam", 7]}', 'substructure_query_id': 7}, 424: {'residue_name': 'pnipam', 'residue_number': 72, 'insertion_code': ' ', 'chain_id': ' ', 'match_info': '{"22": ["PEPTIDE_BOND", 3], "69": ["pnipam", 8], "72": ["pnipam", 8]}', 'substructure_query_id': 8}, 425: {'residue_name': 'pnipam', 'residue_number': 72, 'insertion_code': ' ', 'chain_id': ' ', 'match_info': '{"69": ["pnipam", 5], "72": ["pnipam", 5]}', 'substructure_query_id': 5}, 426: {'residue_name': 'pnipam', 'residue_number': 72, 'insertion_code': ' ', 'chain_id': ' ', 'match_info': '{"22": ["PEPTIDE_BOND", 5], "69": ["pnipam", 10], "72": ["pnipam", 10]}', 'substructure_query_id': 10}, 427: {'residue_name': 'pnipam', 'residue_number': 72, 'insertion_code': ' ', 'chain_id': ' ', 'match_info': '{"22": ["PEPTIDE_BOND", 4], "69": ["pnipam", 9], "72": ["pnipam", 9]}', 'substructure_query_id': 9}, 428: {'residue_name': 'pnipam', 'residue_number': 72, 'insertion_code': ' ', 'chain_id': ' ', 'match_info': '{"69": ["pnipam", 12], "72": ["pnipam", 12]}', 'substructure_query_id': 12}, 429: {'residue_name': 'pnipam', 'residue_number': 72, 'insertion_code': ' ', 'chain_id': ' ', 'match_info': '{"69": ["pnipam", 13], "72": ["pnipam", 13]}', 'substructure_query_id': 13}, 430: {'residue_name': 'pnipam', 'residue_number': 72, 'insertion_code': ' ', 'chain_id': ' ', 'match_info': '{"69": ["pnipam", 14], "72": ["pnipam", 14]}', 'substructure_query_id': 14}, 431: {'residue_name': 'pnipam', 'residue_number': 72, 'insertion_code': ' ', 'chain_id': ' ', 'match_info': '{"69": ["pnipam", 15], "72": ["pnipam", 15]}', 'substructure_query_id': 15}, 432: {'residue_name': 'pnipam', 'residue_number': 72, 'insertion_code': ' ', 'chain_id': ' ', 'match_info': '{"69": ["pnipam", 16], "72": ["pnipam", 16]}', 'substructure_query_id': 16}, 433: {'residue_name': 'pnipam', 'residue_number': 72, 'insertion_code': ' ', 'chain_id': ' ', 'match_info': '{"69": ["pnipam", 11], "72": ["pnipam", 11]}', 'substructure_query_id': 11}, 434: {'residue_name': 'pnipam', 'residue_number': 72, 'insertion_code': ' ', 'chain_id': ' ', 'match_info': '{"69": ["pnipam", 17], "72": ["pnipam", 17]}', 'substructure_query_id': 17}, 435: {'residue_name': 'pnipam', 'residue_number': 72, 'insertion_code': ' ', 'chain_id': ' ', 'match_info': '{"69": ["pnipam", 18], "72": ["pnipam", 18]}', 'substructure_query_id': 18}, 436: {'residue_name': 'pnipam', 'residue_number': 72, 'insertion_code': ' ', 'chain_id': ' ', 'match_info': '{"69": ["pnipam", 19], "72": ["pnipam", 19]}', 'substructure_query_id': 19}, 437: {'residue_name': 'pnipam', 'residue_number': 74, 'insertion_code': ' ', 'chain_id': ' ', 'match_info': '{"73": ["pnipam", 1], "74": ["pnipam", 1]}', 'substructure_query_id': 1}, 438: {'residue_name': 'pnipam', 'residue_number': 74, 'insertion_code': ' ', 'chain_id': ' ', 'match_info': '{"71": ["pnipam", 4], "74": ["pnipam", 4]}', 'substructure_query_id': 4}, 439: {'residue_name': 'pnipam', 'residue_number': 74, 'insertion_code': ' ', 'chain_id': ' ', 'match_info': '{"73": ["pnipam", 2], "74": ["pnipam", 2]}', 'substructure_query_id': 2}, 440: {'residue_name': 'pnipam', 'residue_number': 74, 'insertion_code': ' ', 'chain_id': ' ', 'match_info': '{"73": ["pnipam", 3], "74": ["pnipam", 3]}', 'substructure_query_id': 3}, 441: {'residue_name': 'pnipam', 'residue_number': 74, 'insertion_code': ' ', 'chain_id': ' ', 'match_info': '{"23": ["PEPTIDE_BOND", 1], "71": ["pnipam", 6], "74": ["pnipam", 6]}', 'substructure_query_id': 6}, 442: {'residue_name': 'pnipam', 'residue_number': 74, 'insertion_code': ' ', 'chain_id': ' ', 'match_info': '{"23": ["PEPTIDE_BOND", 2], "71": ["pnipam", 7], "74": ["pnipam", 7]}', 'substructure_query_id': 7}, 443: {'residue_name': 'pnipam', 'residue_number': 74, 'insertion_code': ' ', 'chain_id': ' ', 'match_info': '{"23": ["PEPTIDE_BOND", 3], "71": ["pnipam", 8], "74": ["pnipam", 8]}', 'substructure_query_id': 8}, 444: {'residue_name': 'pnipam', 'residue_number': 74, 'insertion_code': ' ', 'chain_id': ' ', 'match_info': '{"71": ["pnipam", 5], "74": ["pnipam", 5]}', 'substructure_query_id': 5}, 445: {'residue_name': 'pnipam', 'residue_number': 74, 'insertion_code': ' ', 'chain_id': ' ', 'match_info': '{"23": ["PEPTIDE_BOND", 5], "71": ["pnipam", 10], "74": ["pnipam", 10]}', 'substructure_query_id': 10}, 446: {'residue_name': 'pnipam', 'residue_number': 74, 'insertion_code': ' ', 'chain_id': ' ', 'match_info': '{"23": ["PEPTIDE_BOND", 4], "71": ["pnipam", 9], "74": ["pnipam", 9]}', 'substructure_query_id': 9}, 447: {'residue_name': 'pnipam', 'residue_number': 74, 'insertion_code': ' ', 'chain_id': ' ', 'match_info': '{"71": ["pnipam", 12], "74": ["pnipam", 12]}', 'substructure_query_id': 12}, 448: {'residue_name': 'pnipam', 'residue_number': 74, 'insertion_code': ' ', 'chain_id': ' ', 'match_info': '{"71": ["pnipam", 13], "74": ["pnipam", 13]}', 'substructure_query_id': 13}, 449: {'residue_name': 'pnipam', 'residue_number': 74, 'insertion_code': ' ', 'chain_id': ' ', 'match_info': '{"71": ["pnipam", 14], "74": ["pnipam", 14]}', 'substructure_query_id': 14}, 450: {'residue_name': 'pnipam', 'residue_number': 74, 'insertion_code': ' ', 'chain_id': ' ', 'match_info': '{"71": ["pnipam", 15], "74": ["pnipam", 15]}', 'substructure_query_id': 15}, 451: {'residue_name': 'pnipam', 'residue_number': 74, 'insertion_code': ' ', 'chain_id': ' ', 'match_info': '{"71": ["pnipam", 16], "74": ["pnipam", 16]}', 'substructure_query_id': 16}, 452: {'residue_name': 'pnipam', 'residue_number': 74, 'insertion_code': ' ', 'chain_id': ' ', 'match_info': '{"71": ["pnipam", 11], "74": ["pnipam", 11]}', 'substructure_query_id': 11}, 453: {'residue_name': 'pnipam', 'residue_number': 74, 'insertion_code': ' ', 'chain_id': ' ', 'match_info': '{"71": ["pnipam", 17], "74": ["pnipam", 17]}', 'substructure_query_id': 17}, 454: {'residue_name': 'pnipam', 'residue_number': 74, 'insertion_code': ' ', 'chain_id': ' ', 'match_info': '{"71": ["pnipam", 18], "74": ["pnipam", 18]}', 'substructure_query_id': 18}, 455: {'residue_name': 'pnipam', 'residue_number': 74, 'insertion_code': ' ', 'chain_id': ' ', 'match_info': '{"71": ["pnipam", 19], "74": ["pnipam", 19]}', 'substructure_query_id': 19}, 456: {'residue_name': 'pnipam', 'residue_number': 76, 'insertion_code': ' ', 'chain_id': ' ', 'match_info': '{"75": ["pnipam", 1], "76": ["pnipam", 1]}', 'substructure_query_id': 1}, 457: {'residue_name': 'pnipam', 'residue_number': 76, 'insertion_code': ' ', 'chain_id': ' ', 'match_info': '{"73": ["pnipam", 4], "76": ["pnipam", 4]}', 'substructure_query_id': 4}, 458: {'residue_name': 'pnipam', 'residue_number': 76, 'insertion_code': ' ', 'chain_id': ' ', 'match_info': '{"75": ["pnipam", 2], "76": ["pnipam", 2]}', 'substructure_query_id': 2}, 459: {'residue_name': 'pnipam', 'residue_number': 76, 'insertion_code': ' ', 'chain_id': ' ', 'match_info': '{"75": ["pnipam", 3], "76": ["pnipam", 3]}', 'substructure_query_id': 3}, 460: {'residue_name': 'pnipam', 'residue_number': 76, 'insertion_code': ' ', 'chain_id': ' ', 'match_info': '{"24": ["PEPTIDE_BOND", 1], "73": ["pnipam", 6], "76": ["pnipam", 6]}', 'substructure_query_id': 6}, 461: {'residue_name': 'pnipam', 'residue_number': 76, 'insertion_code': ' ', 'chain_id': ' ', 'match_info': '{"24": ["PEPTIDE_BOND", 2], "73": ["pnipam", 7], "76": ["pnipam", 7]}', 'substructure_query_id': 7}, 462: {'residue_name': 'pnipam', 'residue_number': 76, 'insertion_code': ' ', 'chain_id': ' ', 'match_info': '{"24": ["PEPTIDE_BOND", 3], "73": ["pnipam", 8], "76": ["pnipam", 8]}', 'substructure_query_id': 8}, 463: {'residue_name': 'pnipam', 'residue_number': 76, 'insertion_code': ' ', 'chain_id': ' ', 'match_info': '{"73": ["pnipam", 5], "76": ["pnipam", 5]}', 'substructure_query_id': 5}, 464: {'residue_name': 'pnipam', 'residue_number': 76, 'insertion_code': ' ', 'chain_id': ' ', 'match_info': '{"24": ["PEPTIDE_BOND", 5], "73": ["pnipam", 10], "76": ["pnipam", 10]}', 'substructure_query_id': 10}, 465: {'residue_name': 'pnipam', 'residue_number': 76, 'insertion_code': ' ', 'chain_id': ' ', 'match_info': '{"24": ["PEPTIDE_BOND", 4], "73": ["pnipam", 9], "76": ["pnipam", 9]}', 'substructure_query_id': 9}, 466: {'residue_name': 'pnipam', 'residue_number': 76, 'insertion_code': ' ', 'chain_id': ' ', 'match_info': '{"73": ["pnipam", 12], "76": ["pnipam", 12]}', 'substructure_query_id': 12}, 467: {'residue_name': 'pnipam', 'residue_number': 76, 'insertion_code': ' ', 'chain_id': ' ', 'match_info': '{"73": ["pnipam", 13], "76": ["pnipam", 13]}', 'substructure_query_id': 13}, 468: {'residue_name': 'pnipam', 'residue_number': 76, 'insertion_code': ' ', 'chain_id': ' ', 'match_info': '{"73": ["pnipam", 14], "76": ["pnipam", 14]}', 'substructure_query_id': 14}, 469: {'residue_name': 'pnipam', 'residue_number': 76, 'insertion_code': ' ', 'chain_id': ' ', 'match_info': '{"73": ["pnipam", 15], "76": ["pnipam", 15]}', 'substructure_query_id': 15}, 470: {'residue_name': 'pnipam', 'residue_number': 76, 'insertion_code': ' ', 'chain_id': ' ', 'match_info': '{"73": ["pnipam", 16], "76": ["pnipam", 16]}', 'substructure_query_id': 16}, 471: {'residue_name': 'pnipam', 'residue_number': 76, 'insertion_code': ' ', 'chain_id': ' ', 'match_info': '{"73": ["pnipam", 11], "76": ["pnipam", 11]}', 'substructure_query_id': 11}, 472: {'residue_name': 'pnipam', 'residue_number': 76, 'insertion_code': ' ', 'chain_id': ' ', 'match_info': '{"73": ["pnipam", 17], "76": ["pnipam", 17]}', 'substructure_query_id': 17}, 473: {'residue_name': 'pnipam', 'residue_number': 76, 'insertion_code': ' ', 'chain_id': ' ', 'match_info': '{"73": ["pnipam", 18], "76": ["pnipam", 18]}', 'substructure_query_id': 18}, 474: {'residue_name': 'pnipam', 'residue_number': 76, 'insertion_code': ' ', 'chain_id': ' ', 'match_info': '{"73": ["pnipam", 19], "76": ["pnipam", 19]}', 'substructure_query_id': 19}, 475: {'residue_name': 'pnipam', 'residue_number': 78, 'insertion_code': ' ', 'chain_id': ' ', 'match_info': '{"77": ["pnipam", 1], "78": ["pnipam", 1]}', 'substructure_query_id': 1}, 476: {'residue_name': 'pnipam', 'residue_number': 78, 'insertion_code': ' ', 'chain_id': ' ', 'match_info': '{"75": ["pnipam", 4], "78": ["pnipam", 4]}', 'substructure_query_id': 4}, 477: {'residue_name': 'pnipam', 'residue_number': 78, 'insertion_code': ' ', 'chain_id': ' ', 'match_info': '{"77": ["pnipam", 2], "78": ["pnipam", 2]}', 'substructure_query_id': 2}, 478: {'residue_name': 'pnipam', 'residue_number': 78, 'insertion_code': ' ', 'chain_id': ' ', 'match_info': '{"77": ["pnipam", 3], "78": ["pnipam", 3]}', 'substructure_query_id': 3}, 479: {'residue_name': 'pnipam', 'residue_number': 78, 'insertion_code': ' ', 'chain_id': ' ', 'match_info': '{"25": ["PEPTIDE_BOND", 1], "75": ["pnipam", 6], "78": ["pnipam", 6]}', 'substructure_query_id': 6}, 480: {'residue_name': 'pnipam', 'residue_number': 78, 'insertion_code': ' ', 'chain_id': ' ', 'match_info': '{"25": ["PEPTIDE_BOND", 2], "75": ["pnipam", 7], "78": ["pnipam", 7]}', 'substructure_query_id': 7}, 481: {'residue_name': 'pnipam', 'residue_number': 78, 'insertion_code': ' ', 'chain_id': ' ', 'match_info': '{"25": ["PEPTIDE_BOND", 3], "75": ["pnipam", 8], "78": ["pnipam", 8]}', 'substructure_query_id': 8}, 482: {'residue_name': 'pnipam', 'residue_number': 78, 'insertion_code': ' ', 'chain_id': ' ', 'match_info': '{"75": ["pnipam", 5], "78": ["pnipam", 5]}', 'substructure_query_id': 5}, 483: {'residue_name': 'pnipam', 'residue_number': 78, 'insertion_code': ' ', 'chain_id': ' ', 'match_info': '{"25": ["PEPTIDE_BOND", 5], "75": ["pnipam", 10], "78": ["pnipam", 10]}', 'substructure_query_id': 10}, 484: {'residue_name': 'pnipam', 'residue_number': 78, 'insertion_code': ' ', 'chain_id': ' ', 'match_info': '{"25": ["PEPTIDE_BOND", 4], "75": ["pnipam", 9], "78": ["pnipam", 9]}', 'substructure_query_id': 9}, 485: {'residue_name': 'pnipam', 'residue_number': 78, 'insertion_code': ' ', 'chain_id': ' ', 'match_info': '{"75": ["pnipam", 12], "78": ["pnipam", 12]}', 'substructure_query_id': 12}, 486: {'residue_name': 'pnipam', 'residue_number': 78, 'insertion_code': ' ', 'chain_id': ' ', 'match_info': '{"75": ["pnipam", 13], "78": ["pnipam", 13]}', 'substructure_query_id': 13}, 487: {'residue_name': 'pnipam', 'residue_number': 78, 'insertion_code': ' ', 'chain_id': ' ', 'match_info': '{"75": ["pnipam", 14], "78": ["pnipam", 14]}', 'substructure_query_id': 14}, 488: {'residue_name': 'pnipam', 'residue_number': 78, 'insertion_code': ' ', 'chain_id': ' ', 'match_info': '{"75": ["pnipam", 15], "78": ["pnipam", 15]}', 'substructure_query_id': 15}, 489: {'residue_name': 'pnipam', 'residue_number': 78, 'insertion_code': ' ', 'chain_id': ' ', 'match_info': '{"75": ["pnipam", 16], "78": ["pnipam", 16]}', 'substructure_query_id': 16}, 490: {'residue_name': 'pnipam', 'residue_number': 78, 'insertion_code': ' ', 'chain_id': ' ', 'match_info': '{"75": ["pnipam", 11], "78": ["pnipam", 11]}', 'substructure_query_id': 11}, 491: {'residue_name': 'pnipam', 'residue_number': 78, 'insertion_code': ' ', 'chain_id': ' ', 'match_info': '{"75": ["pnipam", 17], "78": ["pnipam", 17]}', 'substructure_query_id': 17}, 492: {'residue_name': 'pnipam', 'residue_number': 78, 'insertion_code': ' ', 'chain_id': ' ', 'match_info': '{"75": ["pnipam", 18], "78": ["pnipam", 18]}', 'substructure_query_id': 18}, 493: {'residue_name': 'pnipam', 'residue_number': 78, 'insertion_code': ' ', 'chain_id': ' ', 'match_info': '{"75": ["pnipam", 19], "78": ["pnipam", 19]}', 'substructure_query_id': 19}, 494: {'residue_name': 'pnipam_TERM3', 'residue_number': 81, 'insertion_code': ' ', 'chain_id': ' ', 'match_info': '{"79": ["pnipam", 1], "81": ["pnipam_TERM3", 1]}', 'substructure_query_id': 1}, 495: {'residue_name': 'pnipam_TERM3', 'residue_number': 81, 'insertion_code': ' ', 'chain_id': ' ', 'match_info': '{"77": ["pnipam", 4], "79": ["pnipam", 4], "81": ["pnipam_TERM3", 4]}', 'substructure_query_id': 4}, 496: {'residue_name': 'pnipam_TERM3', 'residue_number': 81, 'insertion_code': ' ', 'chain_id': ' ', 'match_info': '{"81": ["pnipam_TERM3", 0]}', 'substructure_query_id': 0}, 497: {'residue_name': 'pnipam_TERM3', 'residue_number': 81, 'insertion_code': ' ', 'chain_id': ' ', 'match_info': '{"79": ["pnipam", 2], "81": ["pnipam_TERM3", 2]}', 'substructure_query_id': 2}, 498: {'residue_name': 'pnipam_TERM3', 'residue_number': 81, 'insertion_code': ' ', 'chain_id': ' ', 'match_info': '{"26": ["PEPTIDE_BOND", 1], "77": ["pnipam", 6], "79": ["pnipam", 6], "81": ["pnipam_TERM3", 6]}', 'substructure_query_id': 6}, 499: {'residue_name': 'pnipam_TERM3', 'residue_number': 81, 'insertion_code': ' ', 'chain_id': ' ', 'match_info': '{"26": ["PEPTIDE_BOND", 2], "77": ["pnipam", 7], "79": ["pnipam", 7], "81": ["pnipam_TERM3", 7]}', 'substructure_query_id': 7}, 500: {'residue_name': 'pnipam_TERM3', 'residue_number': 81, 'insertion_code': ' ', 'chain_id': ' ', 'match_info': '{"26": ["PEPTIDE_BOND", 3], "77": ["pnipam", 8], "79": ["pnipam", 8], "81": ["pnipam_TERM3", 8]}', 'substructure_query_id': 8}, 501: {'residue_name': 'pnipam_TERM3', 'residue_number': 81, 'insertion_code': ' ', 'chain_id': ' ', 'match_info': '{"77": ["pnipam", 5], "79": ["pnipam", 5], "81": ["pnipam_TERM3", 5]}', 'substructure_query_id': 5}, 502: {'residue_name': 'pnipam_TERM3', 'residue_number': 81, 'insertion_code': ' ', 'chain_id': ' ', 'match_info': '{"26": ["PEPTIDE_BOND", 5], "77": ["pnipam", 10], "79": ["pnipam", 10], "81": ["pnipam_TERM3", 10]}', 'substructure_query_id': 10}, 503: {'residue_name': 'pnipam_TERM3', 'residue_number': 81, 'insertion_code': ' ', 'chain_id': ' ', 'match_info': '{"26": ["PEPTIDE_BOND", 4], "77": ["pnipam", 9], "79": ["pnipam", 9], "81": ["pnipam_TERM3", 9]}', 'substructure_query_id': 9}, 504: {'residue_name': 'pnipam_TERM3', 'residue_number': 81, 'insertion_code': ' ', 'chain_id': ' ', 'match_info': '{"77": ["pnipam", 12], "79": ["pnipam", 12], "81": ["pnipam_TERM3", 12]}', 'substructure_query_id': 12}, 505: {'residue_name': 'pnipam_TERM3', 'residue_number': 81, 'insertion_code': ' ', 'chain_id': ' ', 'match_info': '{"77": ["pnipam", 13], "79": ["pnipam", 13], "81": ["pnipam_TERM3", 13]}', 'substructure_query_id': 13}, 506: {'residue_name': 'pnipam_TERM3', 'residue_number': 81, 'insertion_code': ' ', 'chain_id': ' ', 'match_info': '{"77": ["pnipam", 14], "79": ["pnipam", 14], "81": ["pnipam_TERM3", 14]}', 'substructure_query_id': 14}, 507: {'residue_name': 'pnipam_TERM3', 'residue_number': 81, 'insertion_code': ' ', 'chain_id': ' ', 'match_info': '{"77": ["pnipam", 15], "79": ["pnipam", 15], "81": ["pnipam_TERM3", 15]}', 'substructure_query_id': 15}, 508: {'residue_name': 'pnipam_TERM3', 'residue_number': 81, 'insertion_code': ' ', 'chain_id': ' ', 'match_info': '{"77": ["pnipam", 16], "79": ["pnipam", 16], "81": ["pnipam_TERM3", 16]}', 'substructure_query_id': 16}, 509: {'residue_name': 'pnipam_TERM3', 'residue_number': 81, 'insertion_code': ' ', 'chain_id': ' ', 'match_info': '{"77": ["pnipam", 11], "79": ["pnipam", 11], "81": ["pnipam_TERM3", 11]}', 'substructure_query_id': 11}, 510: {'residue_name': 'pnipam_TERM3', 'residue_number': 81, 'insertion_code': ' ', 'chain_id': ' ', 'match_info': '{"77": ["pnipam", 17], "79": ["pnipam", 17], "81": ["pnipam_TERM3", 17]}', 'substructure_query_id': 17}, 511: {'residue_name': 'pnipam_TERM3', 'residue_number': 81, 'insertion_code': ' ', 'chain_id': ' ', 'match_info': '{"77": ["pnipam", 18], "79": ["pnipam", 18], "81": ["pnipam_TERM3", 18]}', 'substructure_query_id': 18}, 512: {'residue_name': 'pnipam_TERM3', 'residue_number': 81, 'insertion_code': ' ', 'chain_id': ' ', 'match_info': '{"77": ["pnipam", 19], "79": ["pnipam", 19], "81": ["pnipam_TERM3", 19]}', 'substructure_query_id': 19}, 513: {'residue_name': 'pnipam_TERM2', 'residue_number': 80, 'insertion_code': ' ', 'chain_id': ' ', 'match_info': '{"80": ["pnipam_TERM2", 20]}', 'substructure_query_id': 20}, 514: {'residue_name': 'pnipam_TERM3', 'residue_number': 81, 'insertion_code': ' ', 'chain_id': ' ', 'match_info': '{"79": ["pnipam", 3], "81": ["pnipam_TERM3", 3]}', 'substructure_query_id': 3}}

>  <atom.dprop.PartialCharge>  (1) 
-0.068236395369455652 -0.16009238327591166 0.074923605074002905 0.074923605074002905 0.67297863994987261 -0.60463637078850019 -0.58531230653373945 0.061060563077047034 0.10563403402717368
0.30443015729339379 -0.11142187530843957 0.042637046773746176 0.042637046773746176 0.042637046773746176 -0.11142187530843957 0.070136636842801733 0.042637046773746176 0.042637046773746176
0.042637046773746176 -0.061316638837740259 -0.13314712012855753 0.068481013526036902 0.068481013526036902 0.67696285282523883 -0.60019469226448285 -0.58371472323982465 0.0543913434937741
0.10460396145732657 0.30554375087173241 -0.11168082023708566 0.042634941984727545 0.042634941984727545 0.042634941984727545 -0.11168082023708566 0.069561101843431158 0.042634941984727545
0.042634941984727545 0.042634941984727545 -0.05900550971476777 -0.13574449683277354 0.06816920672805564 0.06816920672805564 0.67651623522193682 -0.600812434802935 -0.5851908322676872
0.056420669306829138 0.10463348065765159 0.30544111167342919 -0.11168082023708566 0.042634941984727545 0.042634941984727545 0.042634941984727545 -0.11168082023708566 0.069561101843431158
0.042634941984727545 0.042634941984727545 0.042634941984727545 -0.059003799806520776 -0.13644057477562174 0.06816920672805564 0.06816920672805564 0.6764400008812691 -0.600812434802935
-0.5851908322676872 0.056238070477559729 0.10463348065765159 0.30544111167342919 -0.11168082023708566 0.042634941984727545 0.042634941984727545 0.042634941984727545 -0.11168082023708566
0.069561101843431158 0.042634941984727545 0.042634941984727545 0.042634941984727545 -0.059003799806520776 -0.13644057477562174 0.06816920672805564 0.06816920672805564 0.6764400008812691
-0.600812434802935 -0.5851908322676872 0.056238070477559729 0.10463348065765159 0.30544111167342919 -0.11168082023708566 0.042634941984727545 0.042634941984727545 0.042634941984727545
-0.11168082023708566 0.069561101843431158 0.042634941984727545 0.042634941984727545 0.042634941984727545 -0.059003799806520776 -0.13644057477562174 0.06816920672805564 0.06816920672805564
0.6764400008812691 -0.600812434802935 -0.5851908322676872 0.056238070477559729 0.10463348065765159 0.30544111167342919 -0.11168082023708566 0.042634941984727545 0.042634941984727545
0.042634941984727545 -0.11168082023708566 0.069561101843431158 0.042634941984727545 0.042634941984727545 0.042634941984727545 -0.059003799806520776 -0.13644057477562174 0.06816920672805564
0.06816920672805564 0.6764400008812691 -0.600812434802935 -0.5851908322676872 0.056238070477559729 0.10463348065765159 0.30544111167342919 -0.11168082023708566 0.042634941984727545
0.042634941984727545 0.042634941984727545 -0.11168082023708566 0.069561101843431158 0.042634941984727545 0.042634941984727545 0.042634941984727545 -0.059003799806520776
-0.13644057477562174 0.06816920672805564 0.06816920672805564 0.6764400008812691 -0.600812434802935 -0.5851908322676872 0.056238070477559729 0.10463348065765159 0.30544111167342919
-0.11168082023708566 0.042634941984727545 0.042634941984727545 0.042634941984727545 -0.11168082023708566 0.069561101843431158 0.042634941984727545 0.042634941984727545 0.042634941984727545
-0.059003799806520776 -0.13644057477562174 0.06816920672805564 0.06816920672805564 0.6764400008812691 -0.600812434802935 -0.5851908322676872 0.056238070477559729 0.10463348065765159
0.30544111167342919 -0.11168082023708566 0.042634941984727545 0.042634941984727545 0.042634941984727545 -0.11168082023708566 0.069561101843431158 0.042634941984727545 0.042634941984727545
0.042634941984727545 -0.059003799806520776 -0.13644057477562174 0.06816920672805564 0.06816920672805564 0.6764400008812691 -0.600812434802935 -0.5851908322676872 0.056238070477559729
0.10463348065765159 0.30544111167342919 -0.11168082023708566 0.042634941984727545 0.042634941984727545 0.042634941984727545 -0.11168082023708566 0.069561101843431158 0.042634941984727545
0.042634941984727545 0.042634941984727545 -0.059003799806520776 -0.13644057477562174 0.06816920672805564 0.06816920672805564 0.6764400008812691 -0.600812434802935 -0.5851908322676872
0.056238070477559729 0.10463348065765159 0.30544111167342919 -0.11168082023708566 0.042634941984727545 0.042634941984727545 0.042634941984727545 -0.11168082023708566 0.069561101843431158
0.042634941984727545 0.042634941984727545 0.042634941984727545 -0.059003799806520776 -0.13644057477562174 0.06816920672805564 0.06816920672805564 0.6764400008812691 -0.600812434802935
-0.5851908322676872 0.056238070477559729 0.10463348065765159 0.30544111167342919 -0.11168082023708566 0.042634941984727545 0.042634941984727545 0.042634941984727545 -0.11168082023708566
0.069561101843431158 0.042634941984727545 0.042634941984727545 0.042634941984727545 -0.059003799806520776 -0.13644057477562174 0.06816920672805564 0.06816920672805564 0.6764400008812691
-0.600812434802935 -0.5851908322676872 0.056238070477559729 0.10463348065765159 0.30544111167342919 -0.11168082023708566 0.042634941984727545 0.042634941984727545 0.042634941984727545
-0.11168082023708566 0.069561101843431158 0.042634941984727545 0.042634941984727545 0.042634941984727545 -0.059003799806520776 -0.13644057477562174 0.06816920672805564 0.06816920672805564
0.6764400008812691 -0.600812434802935 -0.5851908322676872 0.056238070477559729 0.10463348065765159 0.30544111167342919 -0.11168082023708566 0.042634941984727545 0.042634941984727545
0.042634941984727545 -0.11168082023708566 0.069561101843431158 0.042634941984727545 0.042634941984727545 0.042634941984727545 -0.059003799806520776 -0.13644057477562174 0.06816920672805564
0.06816920672805564 0.6764400008812691 -0.600812434802935 -0.5851908322676872 0.056238070477559729 0.10463348065765159 0.30544111167342919 -0.11168082023708566 0.042634941984727545
0.042634941984727545 0.042634941984727545 -0.11168082023708566 0.069561101843431158 0.042634941984727545 0.042634941984727545 0.042634941984727545 -0.059003799806520776
-0.13644057477562174 0.06816920672805564 0.06816920672805564 0.6764400008812691 -0.600812434802935 -0.5851908322676872 0.056238070477559729 0.10463348065765159 0.30544111167342919
-0.11168082023708566 0.042634941984727545 0.042634941984727545 0.042634941984727545 -0.11168082023708566 0.069561101843431158 0.042634941984727545 0.042634941984727545 0.042634941984727545
-0.059003799806520776 -0.13644057477562174 0.06816920672805564 0.06816920672805564 0.6764400008812691 -0.600812434802935 -0.5851908322676872 0.056238070477559729 0.10463348065765159
0.30544111167342919 -0.11168082023708566 0.042634941984727545 0.042634941984727545 0.042634941984727545 -0.11168082023708566 0.069561101843431158 0.042634941984727545 0.042634941984727545
0.042634941984727545 -0.059003799806520776 -0.13644057477562174 0.06816920672805564 0.06816920672805564 0.6764400008812691 -0.600812434802935 -0.5851908322676872 0.056238070477559729
0.10463348065765159 0.30544111167342919 -0.11168082023708566 0.042634941984727545 0.042634941984727545 0.042634941984727545 -0.11168082023708566 0.069561101843431158 0.042634941984727545
0.042634941984727545 0.042634941984727545 -0.059003799806520776 -0.13644057477562174 0.06816920672805564 0.06816920672805564 0.6764400008812691 -0.600812434802935 -0.5851908322676872
0.056238070477559729 0.10463348065765159 0.30544111167342919 -0.11168082023708566 0.042634941984727545 0.042634941984727545 0.042634941984727545 -0.11168082023708566 0.069561101843431158
0.042634941984727545 0.042634941984727545 0.042634941984727545 -0.059003799806520776 -0.13644057477562174 0.06816920672805564 0.06816920672805564 0.6764400008812691 -0.600812434802935
-0.5851908322676872 0.056238070477559729 0.10463348065765159 0.30544111167342919 -0.11168082023708566 0.042634941984727545 0.042634941984727545 0.042634941984727545 -0.11168082023708566
0.069561101843431158 0.042634941984727545 0.042634941984727545 0.042634941984727545 -0.059003799806520776 -0.13644057477562174 0.06816920672805564 0.06816920672805564 0.6764400008812691
-0.600812434802935 -0.5851908322676872 0.056238070477559729 0.10463348065765159 0.30544111167342919 -0.11168082023708566 0.042634941984727545 0.042634941984727545 0.042634941984727545
-0.11168082023708566 0.069561101843431158 0.042634941984727545 0.042634941984727545 0.042634941984727545 -0.059003799806520776 -0.13644057477562174 0.06816920672805564 0.06816920672805564
0.6764400008812691 -0.600812434802935 -0.5851908322676872 0.056238070477559729 0.10463348065765159 0.30544111167342919 -0.11168082023708566 0.042634941984727545 0.042634941984727545
0.042634941984727545 -0.11168082023708566 0.069561101843431158 0.042634941984727545 0.042634941984727545 0.042634941984727545 -0.059003799806520776 -0.13644057477562174 0.06816920672805564
0.06816920672805564 0.6764400008812691 -0.600812434802935 -0.5851908322676872 0.056238070477559729 0.10463348065765159 0.30544111167342919 -0.11168082023708566 0.042634941984727545
0.042634941984727545 0.042634941984727545 -0.11168082023708566 0.069561101843431158 0.042634941984727545 0.042634941984727545 0.042634941984727545 -0.059003799806520776
-0.13644057477562174 0.06816920672805564 0.06816920672805564 0.6764400008812691 -0.600812434802935 -0.5851908322676872 0.056238070477559729 0.10463348065765159 0.30544111167342919
-0.11168082023708566 0.042634941984727545 0.042634941984727545 0.042634941984727545 -0.11168082023708566 0.069561101843431158 0.042634941984727545 0.042634941984727545 0.042634941984727545
-0.059064544390127496 -0.13615038956253275 0.068182029177262946 0.068182029177262946 0.6764400008812691 -0.600812434802935 -0.5851908322676872 0.056238070477559729 0.10463348065765159
0.30544111167342919 -0.11168082023708566 0.042634941984727545 0.042634941984727545 0.042634941984727545 -0.11168082023708566 0.069561101843431158 0.042634941984727545 0.042634941984727545
0.042634941984727545 -0.062069248060867624 -0.13326048816292033 0.06996753846557395 0.06996753846557395 0.67639905249030841 -0.60019415582267988 -0.58526629174797284 0.055386707533910437
0.10463348065765159 0.30544111167342919 -0.11168082023708566 0.042634941984727545 0.042634941984727545 0.042634941984727545 -0.11168082023708566 0.069561101843431158 0.042634941984727545
0.042634941984727545 0.042634941984727545 -0.090481102119371729 -0.13528449798671946 0.042933345188214941 0.042933345188214941 0.67031598125846636 -0.59983122314064252 -0.58287966216652143
0.061071921487167044 0.10565318201930778 0.30189803277404564 -0.11142522061912759 0.042634941984727545 0.042634941984727545 0.042634941984727545 -0.11142522061912759 0.069598101426675482
0.042634941984727545 0.042634941984727545 0.042634941984727545 0.061060563077047034 0.042933345188214941

$$$$
