
     RDKit          3D

106113  0  0  0  0  0  0  0  0999 V2000
  -10.6040    1.3380    0.2830 C   0  0  0  0  0  0  0  0  0  0  0  0
  -10.8430    1.3050    1.6620 C   0  0  0  0  0  0  0  0  0  0  0  0
   -9.6060    1.9410    2.7730 S   0  0  0  0  0  6  0  0  0  0  0  0
  -10.1780    1.9570    4.1060 O   0  0  0  0  0  0  0  0  0  0  0  0
  -11.6020    0.9180   -0.5990 C   0  0  0  0  0  0  0  0  0  0  0  0
  -12.8340    0.4880   -0.0910 C   0  0  0  0  0  0  0  0  0  0  0  0
  -14.1230   -0.0280   -1.2090 S   0  0  0  0  0  6  0  0  0  0  0  0
  -13.5040   -0.2930   -2.4950 O   0  0  0  0  0  0  0  0  0  0  0  0
  -15.1890    1.3790   -1.4140 C   0  0  0  0  0  0  0  0  0  0  0  0
  -16.3980    1.4460   -0.7160 C   0  0  0  0  0  0  0  0  0  0  0  0
  -17.2250    2.5570   -0.8860 C   0  0  0  0  0  0  0  0  0  0  0  0
  -16.8470    3.5850   -1.7510 C   0  0  0  0  0  0  0  0  0  0  0  0
  -14.8120    2.3980   -2.2940 C   0  0  0  0  0  0  0  0  0  0  0  0
  -15.6450    3.5050   -2.4570 C   0  0  0  0  0  0  0  0  0  0  0  0
  -14.8760   -1.0670   -0.5290 O   0  0  0  0  0  0  0  0  0  0  0  0
  -12.0700    0.8600    2.1680 C   0  0  0  0  0  0  0  0  0  0  0  0
  -13.0680    0.4420    1.2870 C   0  0  0  0  0  0  0  0  0  0  0  0
   -9.1140    3.1640    2.1660 O   0  0  0  0  0  0  0  0  0  0  0  0
   -8.2540    0.7840    2.8280 C   0  0  0  0  0  0  0  0  0  0  0  0
   -6.9640    1.2090    2.4840 C   0  0  0  0  0  0  0  0  0  0  0  0
   -5.8840    0.3380    2.6420 C   0  0  0  0  0  0  0  0  0  0  0  0
   -6.1050   -0.9510    3.1360 C   0  0  0  0  0  0  0  0  0  0  0  0
   -4.7070   -2.0080    3.4610 S   0  0  0  0  0  6  0  0  0  0  0  0
   -5.2180   -3.3020    3.8740 O   0  0  0  0  0  0  0  0  0  0  0  0
   -7.3970   -1.3840    3.4590 C   0  0  0  0  0  0  0  0  0  0  0  0
   -8.4780   -0.5110    3.3070 C   0  0  0  0  0  0  0  0  0  0  0  0
   -3.8220   -1.2500    4.3250 O   0  0  0  0  0  0  0  0  0  0  0  0
   -3.8510   -2.2830    1.9240 C   0  0  0  0  0  0  0  0  0  0  0  0
   -2.5460   -1.8030    1.7480 C   0  0  0  0  0  0  0  0  0  0  0  0
   -1.8560   -2.0710    0.5600 C   0  0  0  0  0  0  0  0  0  0  0  0
   -2.4850   -2.8200   -0.4350 C   0  0  0  0  0  0  0  0  0  0  0  0
   -1.6930   -3.2140   -1.9750 S   0  0  0  0  0  6  0  0  0  0  0  0
   -2.3710   -2.4180   -2.9810 O   0  0  0  0  0  0  0  0  0  0  0  0
   -3.7900   -3.3040   -0.2540 C   0  0  0  0  0  0  0  0  0  0  0  0
   -4.4760   -3.0400    0.9310 C   0  0  0  0  0  0  0  0  0  0  0  0
   -1.6920   -4.6640   -2.0590 O   0  0  0  0  0  0  0  0  0  0  0  0
    0.0160   -2.7000   -1.9930 C   0  0  0  0  0  0  0  0  0  0  0  0
    1.0270   -3.6550   -1.8270 C   0  0  0  0  0  0  0  0  0  0  0  0
    2.3580   -3.3050   -2.0720 C   0  0  0  0  0  0  0  0  0  0  0  0
    2.6720   -1.9990   -2.4710 C   0  0  0  0  0  0  0  0  0  0  0  0
    4.3220   -1.6350   -3.0490 S   0  0  0  0  0  6  0  0  0  0  0  0
    4.1880   -0.5770   -4.0330 O   0  0  0  0  0  0  0  0  0  0  0  0
    1.6650   -1.0360   -2.6070 C   0  0  0  0  0  0  0  0  0  0  0  0
    0.3320   -1.3890   -2.3720 C   0  0  0  0  0  0  0  0  0  0  0  0
    4.9400   -2.8970   -3.4110 O   0  0  0  0  0  0  0  0  0  0  0  0
    5.2850   -0.9840   -1.7020 C   0  0  0  0  0  0  0  0  0  0  0  0
    5.8810    0.2770   -1.8260 C   0  0  0  0  0  0  0  0  0  0  0  0
    6.7320    0.7400   -0.8220 C   0  0  0  0  0  0  0  0  0  0  0  0
    6.9940   -0.0700    0.2890 C   0  0  0  0  0  0  0  0  0  0  0  0
    8.1070    0.5150    1.5510 S   0  0  0  0  0  6  0  0  0  0  0  0
    7.8180   -0.2380    2.7570 O   0  0  0  0  0  0  0  0  0  0  0  0
    6.3760   -1.3180    0.4280 C   0  0  0  0  0  0  0  0  0  0  0  0
    5.5230   -1.7820   -0.5770 C   0  0  0  0  0  0  0  0  0  0  0  0
    8.0340    1.9640    1.5530 O   0  0  0  0  0  0  0  0  0  0  0  0
    9.7550    0.0810    1.0250 C   0  0  0  0  0  0  0  0  0  0  0  0
   10.3580    0.8160   -0.0040 C   0  0  0  0  0  0  0  0  0  0  0  0
   11.6540    0.4980   -0.4120 C   0  0  0  0  0  0  0  0  0  0  0  0
   12.3420   -0.5400    0.2270 C   0  0  0  0  0  0  0  0  0  0  0  0
   14.0060   -0.9270   -0.2730 S   0  0  0  0  0  6  0  0  0  0  0  0
   13.8980   -1.4870   -1.6070 O   0  0  0  0  0  0  0  0  0  0  0  0
   11.7470   -1.2650    1.2650 C   0  0  0  0  0  0  0  0  0  0  0  0
   10.4460   -0.9520    1.6670 C   0  0  0  0  0  0  0  0  0  0  0  0
   14.6320   -1.6700    0.8040 O   0  0  0  0  0  0  0  0  0  0  0  0
   14.9090    0.6040   -0.3990 C   0  0  0  0  0  0  0  0  0  0  0  0
   15.0390    1.4130    0.7360 C   0  0  0  0  0  0  0  0  0  0  0  0
   15.7250    2.6240    0.6380 C   0  0  0  0  0  0  0  0  0  0  0  0
   16.2700    3.0050   -0.5930 C   0  0  0  0  0  0  0  0  0  0  0  0
   17.1650    4.5250   -0.7180 S   0  0  0  0  0  6  0  0  0  0  0  0
   17.9170    4.6930    0.5100 O   0  0  0  0  0  0  0  0  0  0  0  0
   16.1620    2.1900   -1.7220 C   0  0  0  0  0  0  0  0  0  0  0  0
   15.4730    0.9810   -1.6250 C   0  0  0  0  0  0  0  0  0  0  0  0
   16.2310    5.5230   -1.1960 O   0  0  0  0  0  0  0  0  0  0  0  0
   -9.6600    1.7090   -0.1110 H   0  0  0  0  0  0  0  0  0  0  0  0
  -11.4190    0.9420   -1.6710 H   0  0  0  0  0  0  0  0  0  0  0  0
  -16.7060    0.6460   -0.0480 H   0  0  0  0  0  0  0  0  0  0  0  0
  -18.1670    2.6180   -0.3480 H   0  0  0  0  0  0  0  0  0  0  0  0
  -13.8850    2.3370   -2.8590 H   0  0  0  0  0  0  0  0  0  0  0  0
  -15.3600    4.3040   -3.1370 H   0  0  0  0  0  0  0  0  0  0  0  0
  -12.2650    0.8530    3.2390 H   0  0  0  0  0  0  0  0  0  0  0  0
  -14.0220    0.0950    1.6800 H   0  0  0  0  0  0  0  0  0  0  0  0
   -6.7870    2.2260    2.1380 H   0  0  0  0  0  0  0  0  0  0  0  0
   -4.8780    0.6880    2.4220 H   0  0  0  0  0  0  0  0  0  0  0  0
   -7.5670   -2.3790    3.8680 H   0  0  0  0  0  0  0  0  0  0  0  0
   -9.4730   -0.8330    3.6070 H   0  0  0  0  0  0  0  0  0  0  0  0
   -2.0530   -1.2350    2.5360 H   0  0  0  0  0  0  0  0  0  0  0  0
   -0.8440   -1.6960    0.4450 H   0  0  0  0  0  0  0  0  0  0  0  0
   -4.2680   -3.9000   -1.0310 H   0  0  0  0  0  0  0  0  0  0  0  0
   -5.4750   -3.4440    1.0770 H   0  0  0  0  0  0  0  0  0  0  0  0
    0.7860   -4.6890   -1.5820 H   0  0  0  0  0  0  0  0  0  0  0  0
    3.1280   -4.0720   -2.0180 H   0  0  0  0  0  0  0  0  0  0  0  0
    1.8970   -0.0350   -2.9660 H   0  0  0  0  0  0  0  0  0  0  0  0
   -0.4540   -0.6590   -2.5550 H   0  0  0  0  0  0  0  0  0  0  0  0
    5.7120    0.8920   -2.7090 H   0  0  0  0  0  0  0  0  0  0  0  0
    7.1930    1.7210   -0.9200 H   0  0  0  0  0  0  0  0  0  0  0  0
    6.5640   -1.9400    1.3020 H   0  0  0  0  0  0  0  0  0  0  0  0
    5.0800   -2.7710   -0.4880 H   0  0  0  0  0  0  0  0  0  0  0  0
    9.8310    1.6380   -0.4840 H   0  0  0  0  0  0  0  0  0  0  0  0
   12.1120    1.0600   -1.2240 H   0  0  0  0  0  0  0  0  0  0  0  0
   12.2860   -2.0690    1.7630 H   0  0  0  0  0  0  0  0  0  0  0  0
    9.9890   -1.5120    2.4810 H   0  0  0  0  0  0  0  0  0  0  0  0
   14.6220    1.1070    1.6930 H   0  0  0  0  0  0  0  0  0  0  0  0
   15.8360    3.2610    1.5130 H   0  0  0  0  0  0  0  0  0  0  0  0
   16.5950    2.4870   -2.6750 H   0  0  0  0  0  0  0  0  0  0  0  0
   15.3810    0.3410   -2.5010 H   0  0  0  0  0  0  0  0  0  0  0  0
  -17.4940    4.4470   -1.8830 H   0  0  0  0  0  0  0  0  0  0  0  0
   18.0870    4.3590   -1.6890 H   0  0  0  0  0  0  0  0  0  0  0  0
  1  2  2  0
  1  5  1  0
  1 73  1  0
  2  3  1  0
  2 16  1  0
  3  4  2  0
  3 18  2  0
  3 19  1  0
  5  6  2  0
  5 74  1  0
  6  7  1  0
  6 17  1  0
  7  8  2  0
  7  9  1  0
  7 15  2  0
  9 10  2  0
  9 13  1  0
 10 11  1  0
 10 75  1  0
 11 12  2  0
 11 76  1  0
 12 14  1  0
 12105  1  0
 13 14  2  0
 13 77  1  0
 14 78  1  0
 16 17  2  0
 16 79  1  0
 17 80  1  0
 19 20  2  0
 19 26  1  0
 20 21  1  0
 20 81  1  0
 21 22  2  0
 21 82  1  0
 22 23  1  0
 22 25  1  0
 23 24  2  0
 23 27  2  0
 23 28  1  0
 25 26  2  0
 25 83  1  0
 26 84  1  0
 28 29  2  0
 28 35  1  0
 29 30  1  0
 29 85  1  0
 30 31  2  0
 30 86  1  0
 31 32  1  0
 31 34  1  0
 32 33  2  0
 32 36  2  0
 32 37  1  0
 34 35  2  0
 34 87  1  0
 35 88  1  0
 37 38  2  0
 37 44  1  0
 38 39  1  0
 38 89  1  0
 39 40  2  0
 39 90  1  0
 40 41  1  0
 40 43  1  0
 41 42  2  0
 41 45  2  0
 41 46  1  0
 43 44  2  0
 43 91  1  0
 44 92  1  0
 46 47  2  0
 46 53  1  0
 47 48  1  0
 47 93  1  0
 48 49  2  0
 48 94  1  0
 49 50  1  0
 49 52  1  0
 50 51  2  0
 50 54  2  0
 50 55  1  0
 52 53  2  0
 52 95  1  0
 53 96  1  0
 55 56  2  0
 55 62  1  0
 56 57  1  0
 56 97  1  0
 57 58  2  0
 57 98  1  0
 58 59  1  0
 58 61  1  0
 59 60  2  0
 59 63  2  0
 59 64  1  0
 61 62  2  0
 61 99  1  0
 62100  1  0
 64 65  2  0
 64 71  1  0
 65 66  1  0
 65101  1  0
 66 67  2  0
 66102  1  0
 67 68  1  0
 67 70  1  0
 68 69  2  0
 68 72  2  0
 68106  1  0
 70 71  2  0
 70103  1  0
 71104  1  0
M  END
>  <charge_method>  (1) 
NAGL

>  <metadata>  (1) 
{0: {'residue_name': 'polyphenylenesulfone', 'residue_number': 1, 'insertion_code': ' ', 'chain_id': ' ', 'match_info': '{"0": ["polyphenylenesulfone", 2], "1": ["polyphenylenesulfone", 4]}', 'substructure_query_id': 4}, 1: {'residue_name': 'polyphenylenesulfone', 'residue_number': 1, 'insertion_code': ' ', 'chain_id': ' ', 'match_info': '{"0": ["polyphenylenesulfone", 0], "1": ["polyphenylenesulfone", 6]}', 'substructure_query_id': 6}, 2: {'residue_name': 'polyphenylenesulfone', 'residue_number': 1, 'insertion_code': ' ', 'chain_id': ' ', 'match_info': '{"1": ["polyphenylenesulfone", 7], "4": ["polyphenylenesulfone", 7]}', 'substructure_query_id': 7}, 3: {'residue_name': 'polyphenylenesulfone', 'residue_number': 1, 'insertion_code': ' ', 'chain_id': ' ', 'match_info': '{"1": ["polyphenylenesulfone", 8], "4": ["polyphenylenesulfone", 8]}', 'substructure_query_id': 8}, 4: {'residue_name': 'polyphenylenesulfone', 'residue_number': 1, 'insertion_code': ' ', 'chain_id': ' ', 'match_info': '{"0": ["polyphenylenesulfone", 4], "1": ["polyphenylenesulfone", 2]}', 'substructure_query_id': 2}, 5: {'residue_name': 'polyphenylenesulfone', 'residue_number': 1, 'insertion_code': ' ', 'chain_id': ' ', 'match_info': '{"0": ["polyphenylenesulfone", 6], "1": ["polyphenylenesulfone", 0]}', 'substructure_query_id': 0}, 6: {'residue_name': 'polyphenylenesulfone_TERM13', 'residue_number': 16, 'insertion_code': ' ', 'chain_id': ' ', 'match_info': '{"0": ["polyphenylenesulfone", 7], "2": ["polyphenylenesulfone", 7], "16": ["polyphenylenesulfone_TERM13", 0]}', 'substructure_query_id': 0}, 7: {'residue_name': 'polyphenylenesulfone_TERM13', 'residue_number': 16, 'insertion_code': ' ', 'chain_id': ' ', 'match_info': '{"0": ["polyphenylenesulfone", 8], "2": ["polyphenylenesulfone", 8], "16": ["polyphenylenesulfone_TERM13", 1]}', 'substructure_query_id': 1}, 8: {'residue_name': 'polyphenylenesulfone_TERM13', 'residue_number': 16, 'insertion_code': ' ', 'chain_id': ' ', 'match_info': '{"2": ["polyphenylenesulfone", 6], "16": ["polyphenylenesulfone_TERM13", 2]}', 'substructure_query_id': 2}, 9: {'residue_name': 'polyphenylenesulfone_TERM13', 'residue_number': 16, 'insertion_code': ' ', 'chain_id': ' ', 'match_info': '{"2": ["polyphenylenesulfone", 4], "16": ["polyphenylenesulfone_TERM13", 3]}', 'substructure_query_id': 3}, 10: {'residue_name': 'polyphenylenesulfone_TERM13', 'residue_number': 16, 'insertion_code': ' ', 'chain_id': ' ', 'match_info': '{"2": ["polyphenylenesulfone", 2], "16": ["polyphenylenesulfone_TERM13", 5]}', 'substructure_query_id': 5}, 11: {'residue_name': 'polyphenylenesulfone_TERM13', 'residue_number': 16, 'insertion_code': ' ', 'chain_id': ' ', 'match_info': '{"2": ["polyphenylenesulfone", 0], "16": ["polyphenylenesulfone_TERM13", 7]}', 'substructure_query_id': 7}, 12: {'residue_name': 'polyphenylenesulfone_TERM13', 'residue_number': 16, 'insertion_code': ' ', 'chain_id': ' ', 'match_info': '{"2": ["polyphenylenesulfone", 11], "16": ["polyphenylenesulfone_TERM13", 11]}', 'substructure_query_id': 11}, 13: {'residue_name': 'polyphenylenesulfone_TERM13', 'residue_number': 16, 'insertion_code': ' ', 'chain_id': ' ', 'match_info': '{"2": ["polyphenylenesulfone", 13], "16": ["polyphenylenesulfone_TERM13", 9]}', 'substructure_query_id': 9}, 14: {'residue_name': 'polyphenylenesulfone_TERM13', 'residue_number': 16, 'insertion_code': ' ', 'chain_id': ' ', 'match_info': '{"0": ["polyphenylenesulfone", 9], "2": ["polyphenylenesulfone", 9], "16": ["polyphenylenesulfone_TERM13", 13]}', 'substructure_query_id': 13}, 15: {'residue_name': 'polyphenylenesulfone', 'residue_number': 1, 'insertion_code': ' ', 'chain_id': ' ', 'match_info': '{"0": ["polyphenylenesulfone", 13], "1": ["polyphenylenesulfone", 11]}', 'substructure_query_id': 11}, 16: {'residue_name': 'polyphenylenesulfone', 'residue_number': 1, 'insertion_code': ' ', 'chain_id': ' ', 'match_info': '{"0": ["polyphenylenesulfone", 11], "1": ["polyphenylenesulfone", 13]}', 'substructure_query_id': 13}, 17: {'residue_name': 'polyphenylenesulfone', 'residue_number': 1, 'insertion_code': ' ', 'chain_id': ' ', 'match_info': '{"1": ["polyphenylenesulfone", 9], "4": ["polyphenylenesulfone", 9]}', 'substructure_query_id': 9}, 18: {'residue_name': 'polyphenylenesulfone', 'residue_number': 3, 'insertion_code': ' ', 'chain_id': ' ', 'match_info': '{"3": ["polyphenylenesulfone", 0], "4": ["polyphenylenesulfone", 6]}', 'substructure_query_id': 0}, 19: {'residue_name': 'polyphenylenesulfone', 'residue_number': 3, 'insertion_code': ' ', 'chain_id': ' ', 'match_info': '{"3": ["polyphenylenesulfone", 2], "4": ["polyphenylenesulfone", 4]}', 'substructure_query_id': 2}, 20: {'residue_name': 'polyphenylenesulfone', 'residue_number': 3, 'insertion_code': ' ', 'chain_id': ' ', 'match_info': '{"3": ["polyphenylenesulfone", 4], "4": ["polyphenylenesulfone", 2]}', 'substructure_query_id': 4}, 21: {'residue_name': 'polyphenylenesulfone', 'residue_number': 3, 'insertion_code': ' ', 'chain_id': ' ', 'match_info': '{"3": ["polyphenylenesulfone", 6], "4": ["polyphenylenesulfone", 0]}', 'substructure_query_id': 6}, 22: {'residue_name': 'polyphenylenesulfone', 'residue_number': 3, 'insertion_code': ' ', 'chain_id': ' ', 'match_info': '{"3": ["polyphenylenesulfone", 7], "6": ["polyphenylenesulfone", 7]}', 'substructure_query_id': 7}, 23: {'residue_name': 'polyphenylenesulfone', 'residue_number': 3, 'insertion_code': ' ', 'chain_id': ' ', 'match_info': '{"3": ["polyphenylenesulfone", 8], "6": ["polyphenylenesulfone", 8]}', 'substructure_query_id': 8}, 24: {'residue_name': 'polyphenylenesulfone', 'residue_number': 3, 'insertion_code': ' ', 'chain_id': ' ', 'match_info': '{"3": ["polyphenylenesulfone", 11], "4": ["polyphenylenesulfone", 13]}', 'substructure_query_id': 11}, 25: {'residue_name': 'polyphenylenesulfone', 'residue_number': 3, 'insertion_code': ' ', 'chain_id': ' ', 'match_info': '{"3": ["polyphenylenesulfone", 13], "4": ["polyphenylenesulfone", 11]}', 'substructure_query_id': 13}, 26: {'residue_name': 'polyphenylenesulfone', 'residue_number': 3, 'insertion_code': ' ', 'chain_id': ' ', 'match_info': '{"3": ["polyphenylenesulfone", 9], "6": ["polyphenylenesulfone", 9]}', 'substructure_query_id': 9}, 27: {'residue_name': 'polyphenylenesulfone', 'residue_number': 5, 'insertion_code': ' ', 'chain_id': ' ', 'match_info': '{"5": ["polyphenylenesulfone", 0], "6": ["polyphenylenesulfone", 6]}', 'substructure_query_id': 0}, 28: {'residue_name': 'polyphenylenesulfone', 'residue_number': 5, 'insertion_code': ' ', 'chain_id': ' ', 'match_info': '{"5": ["polyphenylenesulfone", 2], "6": ["polyphenylenesulfone", 4]}', 'substructure_query_id': 2}, 29: {'residue_name': 'polyphenylenesulfone', 'residue_number': 5, 'insertion_code': ' ', 'chain_id': ' ', 'match_info': '{"5": ["polyphenylenesulfone", 4], "6": ["polyphenylenesulfone", 2]}', 'substructure_query_id': 4}, 30: {'residue_name': 'polyphenylenesulfone', 'residue_number': 5, 'insertion_code': ' ', 'chain_id': ' ', 'match_info': '{"5": ["polyphenylenesulfone", 6], "6": ["polyphenylenesulfone", 0]}', 'substructure_query_id': 6}, 31: {'residue_name': 'polyphenylenesulfone', 'residue_number': 5, 'insertion_code': ' ', 'chain_id': ' ', 'match_info': '{"5": ["polyphenylenesulfone", 7], "8": ["polyphenylenesulfone", 7]}', 'substructure_query_id': 7}, 32: {'residue_name': 'polyphenylenesulfone', 'residue_number': 5, 'insertion_code': ' ', 'chain_id': ' ', 'match_info': '{"5": ["polyphenylenesulfone", 8], "8": ["polyphenylenesulfone", 8]}', 'substructure_query_id': 8}, 33: {'residue_name': 'polyphenylenesulfone', 'residue_number': 5, 'insertion_code': ' ', 'chain_id': ' ', 'match_info': '{"5": ["polyphenylenesulfone", 11], "6": ["polyphenylenesulfone", 13]}', 'substructure_query_id': 11}, 34: {'residue_name': 'polyphenylenesulfone', 'residue_number': 5, 'insertion_code': ' ', 'chain_id': ' ', 'match_info': '{"5": ["polyphenylenesulfone", 13], "6": ["polyphenylenesulfone", 11]}', 'substructure_query_id': 13}, 35: {'residue_name': 'polyphenylenesulfone', 'residue_number': 5, 'insertion_code': ' ', 'chain_id': ' ', 'match_info': '{"5": ["polyphenylenesulfone", 9], "8": ["polyphenylenesulfone", 9]}', 'substructure_query_id': 9}, 36: {'residue_name': 'polyphenylenesulfone', 'residue_number': 7, 'insertion_code': ' ', 'chain_id': ' ', 'match_info': '{"7": ["polyphenylenesulfone", 0], "8": ["polyphenylenesulfone", 6]}', 'substructure_query_id': 0}, 37: {'residue_name': 'polyphenylenesulfone', 'residue_number': 7, 'insertion_code': ' ', 'chain_id': ' ', 'match_info': '{"7": ["polyphenylenesulfone", 2], "8": ["polyphenylenesulfone", 4]}', 'substructure_query_id': 2}, 38: {'residue_name': 'polyphenylenesulfone', 'residue_number': 7, 'insertion_code': ' ', 'chain_id': ' ', 'match_info': '{"7": ["polyphenylenesulfone", 4], "8": ["polyphenylenesulfone", 2]}', 'substructure_query_id': 4}, 39: {'residue_name': 'polyphenylenesulfone', 'residue_number': 7, 'insertion_code': ' ', 'chain_id': ' ', 'match_info': '{"7": ["polyphenylenesulfone", 6], "8": ["polyphenylenesulfone", 0]}', 'substructure_query_id': 6}, 40: {'residue_name': 'polyphenylenesulfone', 'residue_number': 7, 'insertion_code': ' ', 'chain_id': ' ', 'match_info': '{"7": ["polyphenylenesulfone", 7], "10": ["polyphenylenesulfone", 7]}', 'substructure_query_id': 7}, 41: {'residue_name': 'polyphenylenesulfone', 'residue_number': 7, 'insertion_code': ' ', 'chain_id': ' ', 'match_info': '{"7": ["polyphenylenesulfone", 8], "10": ["polyphenylenesulfone", 8]}', 'substructure_query_id': 8}, 42: {'residue_name': 'polyphenylenesulfone', 'residue_number': 7, 'insertion_code': ' ', 'chain_id': ' ', 'match_info': '{"7": ["polyphenylenesulfone", 11], "8": ["polyphenylenesulfone", 13]}', 'substructure_query_id': 11}, 43: {'residue_name': 'polyphenylenesulfone', 'residue_number': 7, 'insertion_code': ' ', 'chain_id': ' ', 'match_info': '{"7": ["polyphenylenesulfone", 13], "8": ["polyphenylenesulfone", 11]}', 'substructure_query_id': 13}, 44: {'residue_name': 'polyphenylenesulfone', 'residue_number': 7, 'insertion_code': ' ', 'chain_id': ' ', 'match_info': '{"7": ["polyphenylenesulfone", 9], "10": ["polyphenylenesulfone", 9]}', 'substructure_query_id': 9}, 45: {'residue_name': 'polyphenylenesulfone', 'residue_number': 9, 'insertion_code': ' ', 'chain_id': ' ', 'match_info': '{"9": ["polyphenylenesulfone", 0], "10": ["polyphenylenesulfone", 6]}', 'substructure_query_id': 0}, 46: {'residue_name': 'polyphenylenesulfone', 'residue_number': 9, 'insertion_code': ' ', 'chain_id': ' ', 'match_info': '{"9": ["polyphenylenesulfone", 2], "10": ["polyphenylenesulfone", 4]}', 'substructure_query_id': 2}, 47: {'residue_name': 'polyphenylenesulfone', 'residue_number': 9, 'insertion_code': ' ', 'chain_id': ' ', 'match_info': '{"9": ["polyphenylenesulfone", 4], "10": ["polyphenylenesulfone", 2]}', 'substructure_query_id': 4}, 48: {'residue_name': 'polyphenylenesulfone', 'residue_number': 9, 'insertion_code': ' ', 'chain_id': ' ', 'match_info': '{"9": ["polyphenylenesulfone", 6], "10": ["polyphenylenesulfone", 0]}', 'substructure_query_id': 6}, 49: {'residue_name': 'polyphenylenesulfone', 'residue_number': 9, 'insertion_code': ' ', 'chain_id': ' ', 'match_info': '{"9": ["polyphenylenesulfone", 7], "12": ["polyphenylenesulfone", 7]}', 'substructure_query_id': 7}, 50: {'residue_name': 'polyphenylenesulfone', 'residue_number': 9, 'insertion_code': ' ', 'chain_id': ' ', 'match_info': '{"9": ["polyphenylenesulfone", 8], "12": ["polyphenylenesulfone", 8]}', 'substructure_query_id': 8}, 51: {'residue_name': 'polyphenylenesulfone', 'residue_number': 9, 'insertion_code': ' ', 'chain_id': ' ', 'match_info': '{"9": ["polyphenylenesulfone", 11], "10": ["polyphenylenesulfone", 13]}', 'substructure_query_id': 11}, 52: {'residue_name': 'polyphenylenesulfone', 'residue_number': 9, 'insertion_code': ' ', 'chain_id': ' ', 'match_info': '{"9": ["polyphenylenesulfone", 13], "10": ["polyphenylenesulfone", 11]}', 'substructure_query_id': 13}, 53: {'residue_name': 'polyphenylenesulfone', 'residue_number': 9, 'insertion_code': ' ', 'chain_id': ' ', 'match_info': '{"9": ["polyphenylenesulfone", 9], "12": ["polyphenylenesulfone", 9]}', 'substructure_query_id': 9}, 54: {'residue_name': 'polyphenylenesulfone', 'residue_number': 11, 'insertion_code': ' ', 'chain_id': ' ', 'match_info': '{"11": ["polyphenylenesulfone", 0], "12": ["polyphenylenesulfone", 6]}', 'substructure_query_id': 0}, 55: {'residue_name': 'polyphenylenesulfone', 'residue_number': 11, 'insertion_code': ' ', 'chain_id': ' ', 'match_info': '{"11": ["polyphenylenesulfone", 2], "12": ["polyphenylenesulfone", 4]}', 'substructure_query_id': 2}, 56: {'residue_name': 'polyphenylenesulfone', 'residue_number': 11, 'insertion_code': ' ', 'chain_id': ' ', 'match_info': '{"11": ["polyphenylenesulfone", 4], "12": ["polyphenylenesulfone", 2]}', 'substructure_query_id': 4}, 57: {'residue_name': 'polyphenylenesulfone', 'residue_number': 11, 'insertion_code': ' ', 'chain_id': ' ', 'match_info': '{"11": ["polyphenylenesulfone", 6], "12": ["polyphenylenesulfone", 0]}', 'substructure_query_id': 6}, 58: {'residue_name': 'polyphenylenesulfone', 'residue_number': 11, 'insertion_code': ' ', 'chain_id': ' ', 'match_info': '{"11": ["polyphenylenesulfone", 7], "14": ["polyphenylenesulfone", 7]}', 'substructure_query_id': 7}, 59: {'residue_name': 'polyphenylenesulfone', 'residue_number': 11, 'insertion_code': ' ', 'chain_id': ' ', 'match_info': '{"11": ["polyphenylenesulfone", 8], "14": ["polyphenylenesulfone", 8]}', 'substructure_query_id': 8}, 60: {'residue_name': 'polyphenylenesulfone', 'residue_number': 11, 'insertion_code': ' ', 'chain_id': ' ', 'match_info': '{"11": ["polyphenylenesulfone", 11], "12": ["polyphenylenesulfone", 13]}', 'substructure_query_id': 11}, 61: {'residue_name': 'polyphenylenesulfone', 'residue_number': 11, 'insertion_code': ' ', 'chain_id': ' ', 'match_info': '{"11": ["polyphenylenesulfone", 13], "12": ["polyphenylenesulfone", 11]}', 'substructure_query_id': 13}, 62: {'residue_name': 'polyphenylenesulfone', 'residue_number': 11, 'insertion_code': ' ', 'chain_id': ' ', 'match_info': '{"11": ["polyphenylenesulfone", 9], "14": ["polyphenylenesulfone", 9]}', 'substructure_query_id': 9}, 63: {'residue_name': 'polyphenylenesulfone_TERM5', 'residue_number': 15, 'insertion_code': ' ', 'chain_id': ' ', 'match_info': '{"13": ["polyphenylenesulfone", 0], "14": ["polyphenylenesulfone", 6], "15": ["polyphenylenesulfone_TERM5", 0]}', 'substructure_query_id': 0}, 64: {'residue_name': 'polyphenylenesulfone_TERM5', 'residue_number': 15, 'insertion_code': ' ', 'chain_id': ' ', 'match_info': '{"13": ["polyphenylenesulfone", 2], "14": ["polyphenylenesulfone", 4], "15": ["polyphenylenesulfone_TERM5", 2]}', 'substructure_query_id': 2}, 65: {'residue_name': 'polyphenylenesulfone_TERM5', 'residue_number': 15, 'insertion_code': ' ', 'chain_id': ' ', 'match_info': '{"13": ["polyphenylenesulfone", 4], "14": ["polyphenylenesulfone", 2], "15": ["polyphenylenesulfone_TERM5", 4]}', 'substructure_query_id': 4}, 66: {'residue_name': 'polyphenylenesulfone_TERM5', 'residue_number': 15, 'insertion_code': ' ', 'chain_id': ' ', 'match_info': '{"13": ["polyphenylenesulfone", 6], "14": ["polyphenylenesulfone", 0], "15": ["polyphenylenesulfone_TERM5", 6]}', 'substructure_query_id': 6}, 67: {'residue_name': 'polyphenylenesulfone_TERM5', 'residue_number': 15, 'insertion_code': ' ', 'chain_id': ' ', 'match_info': '{"13": ["polyphenylenesulfone", 7], "15": ["polyphenylenesulfone_TERM5", 7]}', 'substructure_query_id': 7}, 68: {'residue_name': 'polyphenylenesulfone_TERM5', 'residue_number': 15, 'insertion_code': ' ', 'chain_id': ' ', 'match_info': '{"13": ["polyphenylenesulfone", 8], "15": ["polyphenylenesulfone_TERM5", 8]}', 'substructure_query_id': 8}, 69: {'residue_name': 'polyphenylenesulfone_TERM5', 'residue_number': 15, 'insertion_code': ' ', 'chain_id': ' ', 'match_info': '{"13": ["polyphenylenesulfone", 11], "14": ["polyphenylenesulfone", 13], "15": ["polyphenylenesulfone_TERM5", 11]}', 'substructure_query_id': 11}, 70: {'residue_name': 'polyphenylenesulfone_TERM5', 'residue_number': 15, 'insertion_code': ' ', 'chain_id': ' ', 'match_info': '{"13": ["polyphenylenesulfone", 13], "14": ["polyphenylenesulfone", 11], "15": ["polyphenylenesulfone_TERM5", 13]}', 'substructure_query_id': 13}, 71: {'residue_name': 'polyphenylenesulfone_TERM5', 'residue_number': 15, 'insertion_code': ' ', 'chain_id': ' ', 'match_info': '{"13": ["polyphenylenesulfone", 9], "15": ["polyphenylenesulfone_TERM5", 9]}', 'substructure_query_id': 9}, 72: {'residue_name': 'polyphenylenesulfone', 'residue_number': 1, 'insertion_code': ' ', 'chain_id': ' ', 'match_info': '{"0": ["polyphenylenesulfone", 3], "1": ["polyphenylenesulfone", 5]}', 'substructure_query_id': 5}, 73: {'residue_name': 'polyphenylenesulfone', 'residue_number': 1, 'insertion_code': ' ', 'chain_id': ' ', 'match_info': '{"0": ["polyphenylenesulfone", 5], "1": ["polyphenylenesulfone", 3]}', 'substructure_query_id': 3}, 74: {'residue_name': 'polyphenylenesulfone_TERM13', 'residue_number': 16, 'insertion_code': ' ', 'chain_id': ' ', 'match_info': '{"2": ["polyphenylenesulfone", 5], "16": ["polyphenylenesulfone_TERM13", 4]}', 'substructure_query_id': 4}, 75: {'residue_name': 'polyphenylenesulfone_TERM13', 'residue_number': 16, 'insertion_code': ' ', 'chain_id': ' ', 'match_info': '{"2": ["polyphenylenesulfone", 3], "16": ["polyphenylenesulfone_TERM13", 6]}', 'substructure_query_id': 6}, 76: {'residue_name': 'polyphenylenesulfone_TERM13', 'residue_number': 16, 'insertion_code': ' ', 'chain_id': ' ', 'match_info': '{"2": ["polyphenylenesulfone", 12], "16": ["polyphenylenesulfone_TERM13", 12]}', 'substructure_query_id': 12}, 77: {'residue_name': 'polyphenylenesulfone_TERM13', 'residue_number': 16, 'insertion_code': ' ', 'chain_id': ' ', 'match_info': '{"2": ["polyphenylenesulfone", 14], "16": ["polyphenylenesulfone_TERM13", 10]}', 'substructure_query_id': 10}, 78: {'residue_name': 'polyphenylenesulfone', 'residue_number': 1, 'insertion_code': ' ', 'chain_id': ' ', 'match_info': '{"0": ["polyphenylenesulfone", 14], "1": ["polyphenylenesulfone", 12]}', 'substructure_query_id': 12}, 79: {'residue_name': 'polyphenylenesulfone', 'residue_number': 1, 'insertion_code': ' ', 'chain_id': ' ', 'match_info': '{"0": ["polyphenylenesulfone", 12], "1": ["polyphenylenesulfone", 14]}', 'substructure_query_id': 14}, 80: {'residue_name': 'polyphenylenesulfone', 'residue_number': 3, 'insertion_code': ' ', 'chain_id': ' ', 'match_info': '{"3": ["polyphenylenesulfone", 3], "4": ["polyphenylenesulfone", 5]}', 'substructure_query_id': 3}, 81: {'residue_name': 'polyphenylenesulfone', 'residue_number': 3, 'insertion_code': ' ', 'chain_id': ' ', 'match_info': '{"3": ["polyphenylenesulfone", 5], "4": ["polyphenylenesulfone", 3]}', 'substructure_query_id': 5}, 82: {'residue_name': 'polyphenylenesulfone', 'residue_number': 3, 'insertion_code': ' ', 'chain_id': ' ', 'match_info': '{"3": ["polyphenylenesulfone", 12], "4": ["polyphenylenesulfone", 14]}', 'substructure_query_id': 12}, 83: {'residue_name': 'polyphenylenesulfone', 'residue_number': 3, 'insertion_code': ' ', 'chain_id': ' ', 'match_info': '{"3": ["polyphenylenesulfone", 14], "4": ["polyphenylenesulfone", 12]}', 'substructure_query_id': 14}, 84: {'residue_name': 'polyphenylenesulfone', 'residue_number': 5, 'insertion_code': ' ', 'chain_id': ' ', 'match_info': '{"5": ["polyphenylenesulfone", 3], "6": ["polyphenylenesulfone", 5]}', 'substructure_query_id': 3}, 85: {'residue_name': 'polyphenylenesulfone', 'residue_number': 5, 'insertion_code': ' ', 'chain_id': ' ', 'match_info': '{"5": ["polyphenylenesulfone", 5], "6": ["polyphenylenesulfone", 3]}', 'substructure_query_id': 5}, 86: {'residue_name': 'polyphenylenesulfone', 'residue_number': 5, 'insertion_code': ' ', 'chain_id': ' ', 'match_info': '{"5": ["polyphenylenesulfone", 12], "6": ["polyphenylenesulfone", 14]}', 'substructure_query_id': 12}, 87: {'residue_name': 'polyphenylenesulfone', 'residue_number': 5, 'insertion_code': ' ', 'chain_id': ' ', 'match_info': '{"5": ["polyphenylenesulfone", 14], "6": ["polyphenylenesulfone", 12]}', 'substructure_query_id': 14}, 88: {'residue_name': 'polyphenylenesulfone', 'residue_number': 7, 'insertion_code': ' ', 'chain_id': ' ', 'match_info': '{"7": ["polyphenylenesulfone", 3], "8": ["polyphenylenesulfone", 5]}', 'substructure_query_id': 3}, 89: {'residue_name': 'polyphenylenesulfone', 'residue_number': 7, 'insertion_code': ' ', 'chain_id': ' ', 'match_info': '{"7": ["polyphenylenesulfone", 5], "8": ["polyphenylenesulfone", 3]}', 'substructure_query_id': 5}, 90: {'residue_name': 'polyphenylenesulfone', 'residue_number': 7, 'insertion_code': ' ', 'chain_id': ' ', 'match_info': '{"7": ["polyphenylenesulfone", 12], "8": ["polyphenylenesulfone", 14]}', 'substructure_query_id': 12}, 91: {'residue_name': 'polyphenylenesulfone', 'residue_number': 7, 'insertion_code': ' ', 'chain_id': ' ', 'match_info': '{"7": ["polyphenylenesulfone", 14], "8": ["polyphenylenesulfone", 12]}', 'substructure_query_id': 14}, 92: {'residue_name': 'polyphenylenesulfone', 'residue_number': 9, 'insertion_code': ' ', 'chain_id': ' ', 'match_info': '{"9": ["polyphenylenesulfone", 3], "10": ["polyphenylenesulfone", 5]}', 'substructure_query_id': 3}, 93: {'residue_name': 'polyphenylenesulfone', 'residue_number': 9, 'insertion_code': ' ', 'chain_id': ' ', 'match_info': '{"9": ["polyphenylenesulfone", 5], "10": ["polyphenylenesulfone", 3]}', 'substructure_query_id': 5}, 94: {'residue_name': 'polyphenylenesulfone', 'residue_number': 9, 'insertion_code': ' ', 'chain_id': ' ', 'match_info': '{"9": ["polyphenylenesulfone", 12], "10": ["polyphenylenesulfone", 14]}', 'substructure_query_id': 12}, 95: {'residue_name': 'polyphenylenesulfone', 'residue_number': 9, 'insertion_code': ' ', 'chain_id': ' ', 'match_info': '{"9": ["polyphenylenesulfone", 14], "10": ["polyphenylenesulfone", 12]}', 'substructure_query_id': 14}, 96: {'residue_name': 'polyphenylenesulfone', 'residue_number': 11, 'insertion_code': ' ', 'chain_id': ' ', 'match_info': '{"11": ["polyphenylenesulfone", 3], "12": ["polyphenylenesulfone", 5]}', 'substructure_query_id': 3}, 97: {'residue_name': 'polyphenylenesulfone', 'residue_number': 11, 'insertion_code': ' ', 'chain_id': ' ', 'match_info': '{"11": ["polyphenylenesulfone", 5], "12": ["polyphenylenesulfone", 3]}', 'substructure_query_id': 5}, 98: {'residue_name': 'polyphenylenesulfone', 'residue_number': 11, 'insertion_code': ' ', 'chain_id': ' ', 'match_info': '{"11": ["polyphenylenesulfone", 12], "12": ["polyphenylenesulfone", 14]}', 'substructure_query_id': 12}, 99: {'residue_name': 'polyphenylenesulfone', 'residue_number': 11, 'insertion_code': ' ', 'chain_id': ' ', 'match_info': '{"11": ["polyphenylenesulfone", 14], "12": ["polyphenylenesulfone", 12]}', 'substructure_query_id': 14}, 100: {'residue_name': 'polyphenylenesulfone_TERM5', 'residue_number': 15, 'insertion_code': ' ', 'chain_id': ' ', 'match_info': '{"13": ["polyphenylenesulfone", 3], "14": ["polyphenylenesulfone", 5], "15": ["polyphenylenesulfone_TERM5", 3]}', 'substructure_query_id': 3}, 101: {'residue_name': 'polyphenylenesulfone_TERM5', 'residue_number': 15, 'insertion_code': ' ', 'chain_id': ' ', 'match_info': '{"13": ["polyphenylenesulfone", 5], "14": ["polyphenylenesulfone", 3], "15": ["polyphenylenesulfone_TERM5", 5]}', 'substructure_query_id': 5}, 102: {'residue_name': 'polyphenylenesulfone_TERM5', 'residue_number': 15, 'insertion_code': ' ', 'chain_id': ' ', 'match_info': '{"13": ["polyphenylenesulfone", 12], "14": ["polyphenylenesulfone", 14], "15": ["polyphenylenesulfone_TERM5", 12]}', 'substructure_query_id': 12}, 103: {'residue_name': 'polyphenylenesulfone_TERM5', 'residue_number': 15, 'insertion_code': ' ', 'chain_id': ' ', 'match_info': '{"13": ["polyphenylenesulfone", 14], "14": ["polyphenylenesulfone", 12], "15": ["polyphenylenesulfone_TERM5", 14]}', 'substructure_query_id': 14}, 104: {'residue_name': 'polyphenylenesulfone_TERM13', 'residue_number': 16, 'insertion_code': ' ', 'chain_id': ' ', 'match_info': '{"16": ["polyphenylenesulfone_TERM13", 8]}', 'substructure_query_id': 8}, 105: {'residue_name': 'polyphenylenesulfone_TERM5', 'residue_number': 15, 'insertion_code': ' ', 'chain_id': ' ', 'match_info': '{"15": ["polyphenylenesulfone_TERM5", 10]}', 'substructure_query_id': 10}}

>  <atom.dprop.PartialCharge>  (1) 
-0.045662178534944101 -0.304474468219955 1.4343161332719732 -0.64633234857388266 -0.045662178534944101 -0.30524649738140824 1.4401345002763677 -0.64806535362072715 -0.36667030571766618
-0.014816737610776469 -0.15000465034313923 -0.068942601669509454 -0.014816737610776469 -0.15000465034313923 -0.64806535362072715 -0.045662178534944101 -0.045662178534944101
-0.64633234857388266 -0.304474468219955 -0.045662178534944101 -0.045662178534944101 -0.304474468219955 1.4343161332719732 -0.64633234857388266 -0.045662178534944101 -0.045662178534944101
-0.64633234857388266 -0.304474468219955 -0.045662178534944101 -0.045662178534944101 -0.304474468219955 1.4343161332719732 -0.64633234857388266 -0.045662178534944101 -0.045662178534944101
-0.64633234857388266 -0.304474468219955 -0.045662178534944101 -0.045662178534944101 -0.304474468219955 1.4343161332719732 -0.64633234857388266 -0.045662178534944101 -0.045662178534944101
-0.64633234857388266 -0.304474468219955 -0.045662178534944101 -0.045662178534944101 -0.304474468219955 1.4343161332719732 -0.64633234857388266 -0.045662178534944101 -0.045662178534944101
-0.64633234857388266 -0.304474468219955 -0.045662178534944101 -0.045662178534944101 -0.304474468219955 1.4358457076661992 -0.64633234857388266 -0.045662178534944101 -0.045662178534944101
-0.64633234857388266 -0.3192137133962703 -0.03241830213733439 -0.069314735818584008 -0.24327404319115406 1.3810865628831792 -0.63079651712246665 -0.069314735818584008 -0.03241830213733439
-0.63079651712246665 0.15997696400813335 0.15997696400813335 0.15653530241183514 0.14471620799235577 0.15653530241183514 0.14471620799235577 0.15997696400813335 0.15997696400813335
0.15997696400813335 0.15997696400813335 0.15997696400813335 0.15997696400813335 0.15997696400813335 0.15997696400813335 0.15997696400813335 0.15997696400813335 0.15997696400813335
0.15997696400813335 0.15997696400813335 0.15997696400813335 0.15997696400813335 0.15997696400813335 0.15997696400813335 0.15997696400813335 0.15997696400813335 0.15997696400813335
0.15997696400813335 0.15997696400813335 0.15803094686202282 0.15567408980063671 0.15567408980063671 0.15803094686202282 0.14339542866877789 -0.046123723376472039

$$$$
