
     RDKit          3D

 62 61  0  0  0  0  0  0  0  0999 V2000
    3.1860    4.2750   -4.9640 C   0  0  2  0  0  0  0  0  0  0  0  0
    3.2860    2.7680   -4.6770 C   0  0  0  0  0  0  0  0  0  0  0  0
    4.3270    2.4460   -4.8190 H   0  0  0  0  0  0  0  0  0  0  0  0
    3.5510    4.4980   -5.9710 H   0  0  0  0  0  0  0  0  0  0  0  0
    4.3090    5.1360   -3.8540 Cl  0  0  0  0  0  0  0  0  0  0  0  0
    1.7860    4.8550   -4.8000 C   0  0  0  0  0  0  0  0  0  0  0  0
    1.7930    5.9430   -4.9260 H   0  0  0  0  0  0  0  0  0  0  0  0
    1.0990    4.4490   -5.5480 H   0  0  0  0  0  0  0  0  0  0  0  0
    2.3690    1.8740   -5.5250 C   0  0  1  0  0  0  0  0  0  0  0  0
    2.7030    2.1230   -7.2740 Cl  0  0  0  0  0  0  0  0  0  0  0  0
    1.3230    2.1590   -5.3830 H   0  0  0  0  0  0  0  0  0  0  0  0
    2.5380    0.3720   -5.2260 C   0  0  0  0  0  0  0  0  0  0  0  0
    2.2680   -0.0600   -3.7740 C   0  0  1  0  0  0  0  0  0  0  0  0
    0.6170    0.4170   -3.2750 Cl  0  0  0  0  0  0  0  0  0  0  0  0
    2.9630    0.4580   -3.1080 H   0  0  0  0  0  0  0  0  0  0  0  0
    3.5620    0.0700   -5.4880 H   0  0  0  0  0  0  0  0  0  0  0  0
    1.8740   -0.1960   -5.8930 H   0  0  0  0  0  0  0  0  0  0  0  0
    2.4590   -1.5800   -3.6210 C   0  0  0  0  0  0  0  0  0  0  0  0
    2.1950   -2.1540   -2.2160 C   0  0  1  0  0  0  0  0  0  0  0  0
    1.1400   -2.0230   -1.9630 H   0  0  0  0  0  0  0  0  0  0  0  0
    2.4550   -3.9300   -2.2910 Cl  0  0  0  0  0  0  0  0  0  0  0  0
    3.4870   -1.8270   -3.9200 H   0  0  0  0  0  0  0  0  0  0  0  0
    1.8020   -2.0920   -4.3380 H   0  0  0  0  0  0  0  0  0  0  0  0
    3.0600    2.6040   -3.6170 H   0  0  0  0  0  0  0  0  0  0  0  0
    3.0850   -1.5290   -1.1300 C   0  0  0  0  0  0  0  0  0  0  0  0
    2.9230   -2.1070    0.2910 C   0  0  1  0  0  0  0  0  0  0  0  0
    4.0860   -1.2390    1.3570 Cl  0  0  0  0  0  0  0  0  0  0  0  0
    3.2380   -3.1530    0.3020 H   0  0  0  0  0  0  0  0  0  0  0  0
    4.1360   -1.6290   -1.4360 H   0  0  0  0  0  0  0  0  0  0  0  0
    2.8810   -0.4520   -1.0830 H   0  0  0  0  0  0  0  0  0  0  0  0
    1.4920   -1.9520    0.8420 C   0  0  0  0  0  0  0  0  0  0  0  0
    0.7870   -2.4560    0.1700 H   0  0  0  0  0  0  0  0  0  0  0  0
    1.2630   -2.4970    2.2640 C   0  0  1  0  0  0  0  0  0  0  0  0
   -0.1880   -2.3220    2.7530 C   0  0  0  0  0  0  0  0  0  0  0  0
   -0.8540   -2.9060    2.1040 H   0  0  0  0  0  0  0  0  0  0  0  0
   -0.2780   -2.7620    3.7560 H   0  0  0  0  0  0  0  0  0  0  0  0
    1.6370   -4.2570    2.3120 Cl  0  0  0  0  0  0  0  0  0  0  0  0
    1.9480   -2.0310    2.9770 H   0  0  0  0  0  0  0  0  0  0  0  0
   -0.7140   -0.8760    2.7990 C   0  0  2  0  0  0  0  0  0  0  0  0
    0.3300    0.1350    3.8420 Cl  0  0  0  0  0  0  0  0  0  0  0  0
   -0.6720   -0.4450    1.7970 H   0  0  0  0  0  0  0  0  0  0  0  0
   -2.1650   -0.8510    3.3210 C   0  0  0  0  0  0  0  0  0  0  0  0
   -2.8520    0.5260    3.2890 C   0  0  2  0  0  0  0  0  0  0  0  0
   -4.2910    0.4970    3.8400 C   0  0  0  0  0  0  0  0  0  0  0  0
   -4.7340    1.4970    3.7300 H   0  0  0  0  0  0  0  0  0  0  0  0
   -4.8850   -0.1720    3.2050 H   0  0  0  0  0  0  0  0  0  0  0  0
   -2.2620    1.2710    3.8280 H   0  0  0  0  0  0  0  0  0  0  0  0
   -2.9390    1.1210    1.5890 Cl  0  0  0  0  0  0  0  0  0  0  0  0
   -2.7660   -1.5570    2.7330 H   0  0  0  0  0  0  0  0  0  0  0  0
   -2.1630   -1.2350    4.3480 H   0  0  0  0  0  0  0  0  0  0  0  0
   -4.4410    0.0530    5.3040 C   0  0  1  0  0  0  0  0  0  0  0  0
   -3.4410    1.0900    6.3770 Cl  0  0  0  0  0  0  0  0  0  0  0  0
   -4.0570   -0.9620    5.4340 H   0  0  0  0  0  0  0  0  0  0  0  0
    1.2350   -0.8870    0.8130 H   0  0  0  0  0  0  0  0  0  0  0  0
   -5.8920    0.1150    5.8080 C   0  0  0  0  0  0  0  0  0  0  0  0
   -6.9020   -0.7160    5.0200 C   0  0  0  0  0  0  0  0  0  0  0  0
   -6.4540   -2.4340    4.9590 Cl  0  0  0  0  0  0  0  0  0  0  0  0
   -7.0080   -0.3560    3.9930 H   0  0  0  0  0  0  0  0  0  0  0  0
   -6.2400    1.1570    5.8060 H   0  0  0  0  0  0  0  0  0  0  0  0
   -5.9230   -0.2030    6.8590 H   0  0  0  0  0  0  0  0  0  0  0  0
    1.3790    4.6300   -3.8070 H   0  0  0  0  0  0  0  0  0  0  0  0
   -7.8820   -0.6340    5.5040 H   0  0  0  0  0  0  0  0  0  0  0  0
  1  2  1  0
  1  4  1  6
  1  5  1  0
  1  6  1  0
  2  3  1  0
  2  9  1  0
  2 24  1  0
  6  7  1  0
  6  8  1  0
  6 61  1  0
  9 10  1  0
  9 11  1  6
  9 12  1  0
 12 13  1  0
 12 16  1  0
 12 17  1  0
 13 14  1  0
 13 15  1  1
 13 18  1  0
 18 19  1  0
 18 22  1  0
 18 23  1  0
 19 20  1  1
 19 21  1  0
 19 25  1  0
 25 26  1  0
 25 29  1  0
 25 30  1  0
 26 27  1  0
 26 28  1  6
 26 31  1  0
 31 32  1  0
 31 33  1  0
 31 54  1  0
 33 34  1  0
 33 37  1  0
 33 38  1  1
 34 35  1  0
 34 36  1  0
 34 39  1  0
 39 40  1  0
 39 41  1  6
 39 42  1  0
 42 43  1  0
 42 49  1  0
 42 50  1  0
 43 44  1  0
 43 47  1  1
 43 48  1  0
 44 45  1  0
 44 46  1  0
 44 51  1  0
 51 52  1  0
 51 53  1  6
 51 55  1  0
 55 56  1  0
 55 59  1  0
 55 60  1  0
 56 57  1  0
 56 58  1  0
 56 62  1  0
M  END
>  <charge_method>  (1) 
NAGL

>  <metadata>  (1) 
{0: {'residue_name': 'polyvinylchloride_TERM4', 'residue_number': 20, 'insertion_code': ' ', 'chain_id': ' ', 'match_info': '{"0": ["polyvinylchloride", 3], "2": ["polyvinylchloride", 3], "20": ["polyvinylchloride_TERM4", 0]}', 'substructure_query_id': 0}, 1: {'residue_name': 'polyvinylchloride', 'residue_number': 1, 'insertion_code': ' ', 'chain_id': ' ', 'match_info': '{"0": ["polyvinylchloride", 0], "1": ["polyvinylchloride", 0]}', 'substructure_query_id': 0}, 2: {'residue_name': 'polyvinylchloride', 'residue_number': 1, 'insertion_code': ' ', 'chain_id': ' ', 'match_info': '{"0": ["polyvinylchloride", 1], "1": ["polyvinylchloride", 1]}', 'substructure_query_id': 1}, 3: {'residue_name': 'polyvinylchloride_TERM4', 'residue_number': 20, 'insertion_code': ' ', 'chain_id': ' ', 'match_info': '{"0": ["polyvinylchloride", 5], "2": ["polyvinylchloride", 5], "20": ["polyvinylchloride_TERM4", 1]}', 'substructure_query_id': 1}, 4: {'residue_name': 'polyvinylchloride_TERM4', 'residue_number': 20, 'insertion_code': ' ', 'chain_id': ' ', 'match_info': '{"0": ["polyvinylchloride", 4], "2": ["polyvinylchloride", 4], "20": ["polyvinylchloride_TERM4", 2]}', 'substructure_query_id': 2}, 5: {'residue_name': 'polyvinylchloride_TERM4', 'residue_number': 20, 'insertion_code': ' ', 'chain_id': ' ', 'match_info': '{"2": ["polyvinylchloride", 0], "20": ["polyvinylchloride_TERM4", 3]}', 'substructure_query_id': 3}, 6: {'residue_name': 'polyvinylchloride_TERM4', 'residue_number': 20, 'insertion_code': ' ', 'chain_id': ' ', 'match_info': '{"2": ["polyvinylchloride", 1], "20": ["polyvinylchloride_TERM4", 4]}', 'substructure_query_id': 4}, 7: {'residue_name': 'polyvinylchloride_TERM4', 'residue_number': 20, 'insertion_code': ' ', 'chain_id': ' ', 'match_info': '{"2": ["polyvinylchloride", 2], "20": ["polyvinylchloride_TERM4", 5]}', 'substructure_query_id': 5}, 8: {'residue_name': 'polyvinylchloride', 'residue_number': 1, 'insertion_code': ' ', 'chain_id': ' ', 'match_info': '{"1": ["polyvinylchloride", 3], "3": ["polyvinylchloride", 3]}', 'substructure_query_id': 3}, 9: {'residue_name': 'polyvinylchloride', 'residue_number': 1, 'insertion_code': ' ', 'chain_id': ' ', 'match_info': '{"1": ["polyvinylchloride", 4], "3": ["polyvinylchloride", 4]}', 'substructure_query_id': 4}, 10: {'residue_name': 'polyvinylchloride', 'residue_number': 1, 'insertion_code': ' ', 'chain_id': ' ', 'match_info': '{"1": ["polyvinylchloride", 5], "3": ["polyvinylchloride", 5]}', 'substructure_query_id': 5}, 11: {'residue_name': 'polyvinylchloride', 'residue_number': 4, 'insertion_code': ' ', 'chain_id': ' ', 'match_info': '{"3": ["polyvinylchloride", 0], "4": ["polyvinylchloride", 0]}', 'substructure_query_id': 0}, 12: {'residue_name': 'polyvinylchloride', 'residue_number': 4, 'insertion_code': ' ', 'chain_id': ' ', 'match_info': '{"4": ["polyvinylchloride", 3], "5": ["polyvinylchloride", 3]}', 'substructure_query_id': 3}, 13: {'residue_name': 'polyvinylchloride', 'residue_number': 4, 'insertion_code': ' ', 'chain_id': ' ', 'match_info': '{"4": ["polyvinylchloride", 4], "5": ["polyvinylchloride", 4]}', 'substructure_query_id': 4}, 14: {'residue_name': 'polyvinylchloride', 'residue_number': 4, 'insertion_code': ' ', 'chain_id': ' ', 'match_info': '{"4": ["polyvinylchloride", 5], "5": ["polyvinylchloride", 5]}', 'substructure_query_id': 5}, 15: {'residue_name': 'polyvinylchloride', 'residue_number': 4, 'insertion_code': ' ', 'chain_id': ' ', 'match_info': '{"3": ["polyvinylchloride", 1], "4": ["polyvinylchloride", 1]}', 'substructure_query_id': 1}, 16: {'residue_name': 'polyvinylchloride', 'residue_number': 4, 'insertion_code': ' ', 'chain_id': ' ', 'match_info': '{"3": ["polyvinylchloride", 2], "4": ["polyvinylchloride", 2]}', 'substructure_query_id': 2}, 17: {'residue_name': 'polyvinylchloride', 'residue_number': 6, 'insertion_code': ' ', 'chain_id': ' ', 'match_info': '{"5": ["polyvinylchloride", 0], "6": ["polyvinylchloride", 0]}', 'substructure_query_id': 0}, 18: {'residue_name': 'polyvinylchloride', 'residue_number': 6, 'insertion_code': ' ', 'chain_id': ' ', 'match_info': '{"6": ["polyvinylchloride", 3], "7": ["polyvinylchloride", 3]}', 'substructure_query_id': 3}, 19: {'residue_name': 'polyvinylchloride', 'residue_number': 6, 'insertion_code': ' ', 'chain_id': ' ', 'match_info': '{"6": ["polyvinylchloride", 5], "7": ["polyvinylchloride", 5]}', 'substructure_query_id': 5}, 20: {'residue_name': 'polyvinylchloride', 'residue_number': 6, 'insertion_code': ' ', 'chain_id': ' ', 'match_info': '{"6": ["polyvinylchloride", 4], "7": ["polyvinylchloride", 4]}', 'substructure_query_id': 4}, 21: {'residue_name': 'polyvinylchloride', 'residue_number': 6, 'insertion_code': ' ', 'chain_id': ' ', 'match_info': '{"5": ["polyvinylchloride", 1], "6": ["polyvinylchloride", 1]}', 'substructure_query_id': 1}, 22: {'residue_name': 'polyvinylchloride', 'residue_number': 6, 'insertion_code': ' ', 'chain_id': ' ', 'match_info': '{"5": ["polyvinylchloride", 2], "6": ["polyvinylchloride", 2]}', 'substructure_query_id': 2}, 23: {'residue_name': 'polyvinylchloride', 'residue_number': 1, 'insertion_code': ' ', 'chain_id': ' ', 'match_info': '{"0": ["polyvinylchloride", 2], "1": ["polyvinylchloride", 2]}', 'substructure_query_id': 2}, 24: {'residue_name': 'polyvinylchloride', 'residue_number': 8, 'insertion_code': ' ', 'chain_id': ' ', 'match_info': '{"7": ["polyvinylchloride", 0], "8": ["polyvinylchloride", 0]}', 'substructure_query_id': 0}, 25: {'residue_name': 'polyvinylchloride', 'residue_number': 8, 'insertion_code': ' ', 'chain_id': ' ', 'match_info': '{"8": ["polyvinylchloride", 3], "9": ["polyvinylchloride", 3]}', 'substructure_query_id': 3}, 26: {'residue_name': 'polyvinylchloride', 'residue_number': 8, 'insertion_code': ' ', 'chain_id': ' ', 'match_info': '{"8": ["polyvinylchloride", 4], "9": ["polyvinylchloride", 4]}', 'substructure_query_id': 4}, 27: {'residue_name': 'polyvinylchloride', 'residue_number': 8, 'insertion_code': ' ', 'chain_id': ' ', 'match_info': '{"8": ["polyvinylchloride", 5], "9": ["polyvinylchloride", 5]}', 'substructure_query_id': 5}, 28: {'residue_name': 'polyvinylchloride', 'residue_number': 8, 'insertion_code': ' ', 'chain_id': ' ', 'match_info': '{"7": ["polyvinylchloride", 1], "8": ["polyvinylchloride", 1]}', 'substructure_query_id': 1}, 29: {'residue_name': 'polyvinylchloride', 'residue_number': 8, 'insertion_code': ' ', 'chain_id': ' ', 'match_info': '{"7": ["polyvinylchloride", 2], "8": ["polyvinylchloride", 2]}', 'substructure_query_id': 2}, 30: {'residue_name': 'polyvinylchloride', 'residue_number': 10, 'insertion_code': ' ', 'chain_id': ' ', 'match_info': '{"9": ["polyvinylchloride", 0], "10": ["polyvinylchloride", 0]}', 'substructure_query_id': 0}, 31: {'residue_name': 'polyvinylchloride', 'residue_number': 10, 'insertion_code': ' ', 'chain_id': ' ', 'match_info': '{"9": ["polyvinylchloride", 1], "10": ["polyvinylchloride", 1]}', 'substructure_query_id': 1}, 32: {'residue_name': 'polyvinylchloride', 'residue_number': 10, 'insertion_code': ' ', 'chain_id': ' ', 'match_info': '{"10": ["polyvinylchloride", 3], "11": ["polyvinylchloride", 3]}', 'substructure_query_id': 3}, 33: {'residue_name': 'polyvinylchloride', 'residue_number': 12, 'insertion_code': ' ', 'chain_id': ' ', 'match_info': '{"11": ["polyvinylchloride", 0], "12": ["polyvinylchloride", 0]}', 'substructure_query_id': 0}, 34: {'residue_name': 'polyvinylchloride', 'residue_number': 12, 'insertion_code': ' ', 'chain_id': ' ', 'match_info': '{"11": ["polyvinylchloride", 1], "12": ["polyvinylchloride", 1]}', 'substructure_query_id': 1}, 35: {'residue_name': 'polyvinylchloride', 'residue_number': 12, 'insertion_code': ' ', 'chain_id': ' ', 'match_info': '{"11": ["polyvinylchloride", 2], "12": ["polyvinylchloride", 2]}', 'substructure_query_id': 2}, 36: {'residue_name': 'polyvinylchloride', 'residue_number': 10, 'insertion_code': ' ', 'chain_id': ' ', 'match_info': '{"10": ["polyvinylchloride", 4], "11": ["polyvinylchloride", 4]}', 'substructure_query_id': 4}, 37: {'residue_name': 'polyvinylchloride', 'residue_number': 10, 'insertion_code': ' ', 'chain_id': ' ', 'match_info': '{"10": ["polyvinylchloride", 5], "11": ["polyvinylchloride", 5]}', 'substructure_query_id': 5}, 38: {'residue_name': 'polyvinylchloride', 'residue_number': 12, 'insertion_code': ' ', 'chain_id': ' ', 'match_info': '{"12": ["polyvinylchloride", 3], "13": ["polyvinylchloride", 3]}', 'substructure_query_id': 3}, 39: {'residue_name': 'polyvinylchloride', 'residue_number': 12, 'insertion_code': ' ', 'chain_id': ' ', 'match_info': '{"12": ["polyvinylchloride", 4], "13": ["polyvinylchloride", 4]}', 'substructure_query_id': 4}, 40: {'residue_name': 'polyvinylchloride', 'residue_number': 12, 'insertion_code': ' ', 'chain_id': ' ', 'match_info': '{"12": ["polyvinylchloride", 5], "13": ["polyvinylchloride", 5]}', 'substructure_query_id': 5}, 41: {'residue_name': 'polyvinylchloride', 'residue_number': 14, 'insertion_code': ' ', 'chain_id': ' ', 'match_info': '{"13": ["polyvinylchloride", 0], "14": ["polyvinylchloride", 0]}', 'substructure_query_id': 0}, 42: {'residue_name': 'polyvinylchloride', 'residue_number': 14, 'insertion_code': ' ', 'chain_id': ' ', 'match_info': '{"14": ["polyvinylchloride", 3], "15": ["polyvinylchloride", 3]}', 'substructure_query_id': 3}, 43: {'residue_name': 'polyvinylchloride', 'residue_number': 16, 'insertion_code': ' ', 'chain_id': ' ', 'match_info': '{"15": ["polyvinylchloride", 0], "16": ["polyvinylchloride", 0]}', 'substructure_query_id': 0}, 44: {'residue_name': 'polyvinylchloride', 'residue_number': 16, 'insertion_code': ' ', 'chain_id': ' ', 'match_info': '{"15": ["polyvinylchloride", 1], "16": ["polyvinylchloride", 1]}', 'substructure_query_id': 1}, 45: {'residue_name': 'polyvinylchloride', 'residue_number': 16, 'insertion_code': ' ', 'chain_id': ' ', 'match_info': '{"15": ["polyvinylchloride", 2], "16": ["polyvinylchloride", 2]}', 'substructure_query_id': 2}, 46: {'residue_name': 'polyvinylchloride', 'residue_number': 14, 'insertion_code': ' ', 'chain_id': ' ', 'match_info': '{"14": ["polyvinylchloride", 5], "15": ["polyvinylchloride", 5]}', 'substructure_query_id': 5}, 47: {'residue_name': 'polyvinylchloride', 'residue_number': 14, 'insertion_code': ' ', 'chain_id': ' ', 'match_info': '{"14": ["polyvinylchloride", 4], "15": ["polyvinylchloride", 4]}', 'substructure_query_id': 4}, 48: {'residue_name': 'polyvinylchloride', 'residue_number': 14, 'insertion_code': ' ', 'chain_id': ' ', 'match_info': '{"13": ["polyvinylchloride", 1], "14": ["polyvinylchloride", 1]}', 'substructure_query_id': 1}, 49: {'residue_name': 'polyvinylchloride', 'residue_number': 14, 'insertion_code': ' ', 'chain_id': ' ', 'match_info': '{"13": ["polyvinylchloride", 2], "14": ["polyvinylchloride", 2]}', 'substructure_query_id': 2}, 50: {'residue_name': 'polyvinylchloride', 'residue_number': 16, 'insertion_code': ' ', 'chain_id': ' ', 'match_info': '{"16": ["polyvinylchloride", 3], "17": ["polyvinylchloride", 3]}', 'substructure_query_id': 3}, 51: {'residue_name': 'polyvinylchloride', 'residue_number': 16, 'insertion_code': ' ', 'chain_id': ' ', 'match_info': '{"16": ["polyvinylchloride", 4], "17": ["polyvinylchloride", 4]}', 'substructure_query_id': 4}, 52: {'residue_name': 'polyvinylchloride', 'residue_number': 16, 'insertion_code': ' ', 'chain_id': ' ', 'match_info': '{"16": ["polyvinylchloride", 5], "17": ["polyvinylchloride", 5]}', 'substructure_query_id': 5}, 53: {'residue_name': 'polyvinylchloride', 'residue_number': 10, 'insertion_code': ' ', 'chain_id': ' ', 'match_info': '{"9": ["polyvinylchloride", 2], "10": ["polyvinylchloride", 2]}', 'substructure_query_id': 2}, 54: {'residue_name': 'polyvinylchloride_TERM2', 'residue_number': 19, 'insertion_code': ' ', 'chain_id': ' ', 'match_info': '{"17": ["polyvinylchloride", 0], "18": ["polyvinylchloride", 0], "19": ["polyvinylchloride_TERM2", 0]}', 'substructure_query_id': 0}, 55: {'residue_name': 'polyvinylchloride_TERM2', 'residue_number': 19, 'insertion_code': ' ', 'chain_id': ' ', 'match_info': '{"18": ["polyvinylchloride", 3], "19": ["polyvinylchloride_TERM2", 1]}', 'substructure_query_id': 1}, 56: {'residue_name': 'polyvinylchloride_TERM2', 'residue_number': 19, 'insertion_code': ' ', 'chain_id': ' ', 'match_info': '{"18": ["polyvinylchloride", 4], "19": ["polyvinylchloride_TERM2", 2]}', 'substructure_query_id': 2}, 57: {'residue_name': 'polyvinylchloride_TERM2', 'residue_number': 19, 'insertion_code': ' ', 'chain_id': ' ', 'match_info': '{"18": ["polyvinylchloride", 5], "19": ["polyvinylchloride_TERM2", 3]}', 'substructure_query_id': 3}, 58: {'residue_name': 'polyvinylchloride_TERM2', 'residue_number': 19, 'insertion_code': ' ', 'chain_id': ' ', 'match_info': '{"17": ["polyvinylchloride", 1], "18": ["polyvinylchloride", 1], "19": ["polyvinylchloride_TERM2", 5]}', 'substructure_query_id': 5}, 59: {'residue_name': 'polyvinylchloride_TERM2', 'residue_number': 19, 'insertion_code': ' ', 'chain_id': ' ', 'match_info': '{"17": ["polyvinylchloride", 2], "18": ["polyvinylchloride", 2], "19": ["polyvinylchloride_TERM2", 6]}', 'substructure_query_id': 6}, 60: {'residue_name': 'polyvinylchloride_TERM4', 'residue_number': 20, 'insertion_code': ' ', 'chain_id': ' ', 'match_info': '{"20": ["polyvinylchloride_TERM4", 6]}', 'substructure_query_id': 6}, 61: {'residue_name': 'polyvinylchloride_TERM2', 'residue_number': 19, 'insertion_code': ' ', 'chain_id': ' ', 'match_info': '{"19": ["polyvinylchloride_TERM2", 4]}', 'substructure_query_id': 4}}

>  <atom.dprop.PartialCharge>  (1) 
0.058625118055891608 -0.088783106586385163 0.072320767858576385 0.074159846821379272 -0.19272188731138745 -0.10890690871183911 0.052017928281378363 0.052017928281378363
0.070961550989698974 -0.19574764259760419 0.071855315187525359 -0.097340433678079041 0.071239368238997069 -0.1947872776598219 0.073998310783457366 0.072185577073645202 0.072185577073645202
-0.097424982866692933 0.070992113271307555 0.073998310783457366 -0.1947872776598219 0.071916327992033569 0.071916327992033569 0.072320767858576385 -0.097424982866692933
0.070992113271307555 -0.1947872776598219 0.073998310783457366 0.071916327992033569 0.071916327992033569 -0.097424982866692933 0.071916327992033569 0.070992113271307555
-0.097424982866692933 0.071916327992033569 0.071916327992033569 -0.1947872776598219 0.073998310783457366 0.070992113271307555 -0.1947872776598219 0.073998310783457366 -0.097426145157266053
0.071544007578444091 -0.095078221342015656 0.072599486628126708 0.072599486628126708 0.0738018017202135 -0.19483536370699445 0.071916327992033569 0.071916327992033569 0.061885037639689063
-0.1915383625835661 0.072693810978483764 0.071916327992033569 -0.098571262142110261 0.028829804801892851 -0.18006202467386762 0.068253667274069396 0.074577973404478637 0.074577973404478637
0.052017928281378363 0.068253667274069396

$$$$
