
     RDKit          3D

145158  0  0  0  0  0  0  0  0999 V2000
    7.9970   14.0700   11.6720 C   0  0  0  0  0  0  0  0  0  0  0  0
    7.5300   13.3550   12.7540 C   0  0  0  0  0  0  0  0  0  0  0  0
    7.0970   14.5560   10.7330 C   0  0  0  0  0  0  0  0  0  0  0  0
    8.9250   14.2500   11.5760 H   0  0  0  0  0  0  0  0  0  0  0  0
    5.7210   14.3180   10.8680 C   0  0  0  0  0  0  0  0  0  0  0  0
    7.4060   15.0510    9.9830 H   0  0  0  0  0  0  0  0  0  0  0  0
    4.7510   14.8330    9.8540 C   0  0  0  0  0  0  0  0  0  0  0  0
    5.2870   13.5950   11.9750 C   0  0  0  0  0  0  0  0  0  0  0  0
    6.1780   13.1360   12.9040 C   0  0  0  0  0  0  0  0  0  0  0  0
    4.3560   13.4550   12.0950 H   0  0  0  0  0  0  0  0  0  0  0  0
    5.8700   12.6340   13.6500 H   0  0  0  0  0  0  0  0  0  0  0  0
    4.5410   16.2010    9.6600 C   0  0  0  0  0  0  0  0  0  0  0  0
    4.0310   13.9080    9.0610 C   0  0  0  0  0  0  0  0  0  0  0  0
    3.1280   14.3520    8.1150 C   0  0  0  0  0  0  0  0  0  0  0  0
    4.2500   12.4230    9.2540 C   0  0  0  0  0  0  0  0  0  0  0  0
    3.2160   11.6140    9.6800 C   0  0  0  0  0  0  0  0  0  0  0  0
    5.4930   11.8590    8.9840 C   0  0  0  0  0  0  0  0  0  0  0  0
    5.6830   10.4920    9.1480 C   0  0  0  0  0  0  0  0  0  0  0  0
    6.2060   12.4030    8.6720 H   0  0  0  0  0  0  0  0  0  0  0  0
    4.6660    9.6930    9.5600 C   0  0  0  0  0  0  0  0  0  0  0  0
    6.5410   10.1060    9.0130 H   0  0  0  0  0  0  0  0  0  0  0  0
    3.4140   10.2430    9.8470 C   0  0  0  0  0  0  0  0  0  0  0  0
    4.7920    8.7540    9.6300 H   0  0  0  0  0  0  0  0  0  0  0  0
    2.7100    9.6850   10.1550 H   0  0  0  0  0  0  0  0  0  0  0  0
    2.3640   11.9890    9.8730 H   0  0  0  0  0  0  0  0  0  0  0  0
    2.3650   13.3780    7.2600 C   0  0  0  0  0  0  0  0  0  0  0  0
    2.9240   15.7320    7.9260 C   0  0  0  0  0  0  0  0  0  0  0  0
    3.6260   16.6580    8.7080 C   0  0  0  0  0  0  0  0  0  0  0  0
    1.9530   16.1790    6.8650 C   0  0  0  0  0  0  0  0  0  0  0  0
    0.7760   16.8430    7.2120 C   0  0  0  0  0  0  0  0  0  0  0  0
    2.1920   15.8980    5.5220 C   0  0  0  0  0  0  0  0  0  0  0  0
    1.2650   16.2440    4.5500 C   0  0  0  0  0  0  0  0  0  0  0  0
    3.0050   15.4740    5.2750 H   0  0  0  0  0  0  0  0  0  0  0  0
    0.0990   16.8680    4.9100 C   0  0  0  0  0  0  0  0  0  0  0  0
    1.4080   16.0150    3.6390 H   0  0  0  0  0  0  0  0  0  0  0  0
   -0.1490   17.1780    6.2260 C   0  0  0  0  0  0  0  0  0  0  0  0
   -0.5260   17.1260    4.2430 H   0  0  0  0  0  0  0  0  0  0  0  0
   -0.9680   17.6000    6.4590 H   0  0  0  0  0  0  0  0  0  0  0  0
    0.6120   17.0730    8.1190 H   0  0  0  0  0  0  0  0  0  0  0  0
    3.3780   18.1300    8.5240 C   0  0  0  0  0  0  0  0  0  0  0  0
    2.8390   18.8830    9.5760 C   0  0  0  0  0  0  0  0  0  0  0  0
    3.6520   18.7530    7.3300 C   0  0  0  0  0  0  0  0  0  0  0  0
    3.3990   20.1200    7.1750 C   0  0  0  0  0  0  0  0  0  0  0  0
    4.0180   18.2420    6.6190 H   0  0  0  0  0  0  0  0  0  0  0  0
    2.8610   20.8470    8.1900 C   0  0  0  0  0  0  0  0  0  0  0  0
    3.5950   20.5430    6.3480 H   0  0  0  0  0  0  0  0  0  0  0  0
    2.5670   20.2370    9.4030 C   0  0  0  0  0  0  0  0  0  0  0  0
    2.7000   21.7760    8.0750 H   0  0  0  0  0  0  0  0  0  0  0  0
    2.1740   20.7410   10.1050 H   0  0  0  0  0  0  0  0  0  0  0  0
    2.6760   18.4630   10.4130 H   0  0  0  0  0  0  0  0  0  0  0  0
    0.9650   13.3220    7.3550 C   0  0  0  0  0  0  0  0  0  0  0  0
    3.0040   12.5450    6.3730 C   0  0  0  0  0  0  0  0  0  0  0  0
    2.2720   11.7170    5.5150 C   0  0  0  0  0  0  0  0  0  0  0  0
    3.9530   12.5330    6.3350 H   0  0  0  0  0  0  0  0  0  0  0  0
    0.8870   11.7020    5.5550 C   0  0  0  0  0  0  0  0  0  0  0  0
    2.7290   11.1600    4.8960 H   0  0  0  0  0  0  0  0  0  0  0  0
    0.0000   10.8510    4.6190 C   0  0  0  0  0  0  0  0  0  0  0  0
    0.2540   12.4900    6.5220 C   0  0  0  0  0  0  0  0  0  0  0  0
   -0.6910   12.4410    6.6100 H   0  0  0  0  0  0  0  0  0  0  0  0
    0.5110   13.8650    7.9880 H   0  0  0  0  0  0  0  0  0  0  0  0
    5.3150   17.2000   10.4930 C   0  0  0  0  0  0  0  0  0  0  0  0
    5.1530   17.2390   11.8760 C   0  0  0  0  0  0  0  0  0  0  0  0
    6.2130   18.0570    9.8900 C   0  0  0  0  0  0  0  0  0  0  0  0
    6.9690   18.9340   10.6890 C   0  0  0  0  0  0  0  0  0  0  0  0
    6.3010   18.0660    8.9440 H   0  0  0  0  0  0  0  0  0  0  0  0
    6.8160   18.9620   12.0430 C   0  0  0  0  0  0  0  0  0  0  0  0
    7.6100   19.5010   10.2770 H   0  0  0  0  0  0  0  0  0  0  0  0
    5.9070   18.1350   12.6380 C   0  0  0  0  0  0  0  0  0  0  0  0
    7.3500   19.5430   12.5720 H   0  0  0  0  0  0  0  0  0  0  0  0
    5.7660   18.1860   13.5770 H   0  0  0  0  0  0  0  0  0  0  0  0
    4.5400   16.6460   12.2950 H   0  0  0  0  0  0  0  0  0  0  0  0
    8.1470   13.0080   13.3880 H   0  0  0  0  0  0  0  0  0  0  0  0
   -7.9970    7.6310   11.6720 C   0  0  0  0  0  0  0  0  0  0  0  0
   -7.5300    8.3460   12.7540 C   0  0  0  0  0  0  0  0  0  0  0  0
   -7.0970    7.1450   10.7330 C   0  0  0  0  0  0  0  0  0  0  0  0
   -8.9250    7.4510   11.5760 H   0  0  0  0  0  0  0  0  0  0  0  0
   -5.7210    7.3830   10.8680 C   0  0  0  0  0  0  0  0  0  0  0  0
   -7.4060    6.6500    9.9830 H   0  0  0  0  0  0  0  0  0  0  0  0
   -4.7510    6.8680    9.8540 C   0  0  0  0  0  0  0  0  0  0  0  0
   -5.2870    8.1060   11.9750 C   0  0  0  0  0  0  0  0  0  0  0  0
   -6.1780    8.5650   12.9040 C   0  0  0  0  0  0  0  0  0  0  0  0
   -4.3560    8.2460   12.0950 H   0  0  0  0  0  0  0  0  0  0  0  0
   -5.8700    9.0670   13.6500 H   0  0  0  0  0  0  0  0  0  0  0  0
   -4.5410    5.5000    9.6600 C   0  0  0  0  0  0  0  0  0  0  0  0
   -4.0310    7.7930    9.0610 C   0  0  0  0  0  0  0  0  0  0  0  0
   -3.1280    7.3490    8.1150 C   0  0  0  0  0  0  0  0  0  0  0  0
   -4.2500    9.2780    9.2540 C   0  0  0  0  0  0  0  0  0  0  0  0
   -3.2160   10.0870    9.6800 C   0  0  0  0  0  0  0  0  0  0  0  0
   -5.4930    9.8420    8.9840 C   0  0  0  0  0  0  0  0  0  0  0  0
   -5.6830   11.2090    9.1480 C   0  0  0  0  0  0  0  0  0  0  0  0
   -6.2060    9.2980    8.6720 H   0  0  0  0  0  0  0  0  0  0  0  0
   -4.6660   12.0080    9.5600 C   0  0  0  0  0  0  0  0  0  0  0  0
   -6.5410   11.5950    9.0130 H   0  0  0  0  0  0  0  0  0  0  0  0
   -3.4140   11.4580    9.8470 C   0  0  0  0  0  0  0  0  0  0  0  0
   -4.7920   12.9470    9.6300 H   0  0  0  0  0  0  0  0  0  0  0  0
   -2.7100   12.0160   10.1550 H   0  0  0  0  0  0  0  0  0  0  0  0
   -2.3640    9.7120    9.8730 H   0  0  0  0  0  0  0  0  0  0  0  0
   -2.3650    8.3230    7.2600 C   0  0  0  0  0  0  0  0  0  0  0  0
   -2.9240    5.9690    7.9260 C   0  0  0  0  0  0  0  0  0  0  0  0
   -3.6260    5.0430    8.7080 C   0  0  0  0  0  0  0  0  0  0  0  0
   -1.9530    5.5220    6.8650 C   0  0  0  0  0  0  0  0  0  0  0  0
   -0.7760    4.8580    7.2120 C   0  0  0  0  0  0  0  0  0  0  0  0
   -2.1920    5.8030    5.5220 C   0  0  0  0  0  0  0  0  0  0  0  0
   -1.2650    5.4570    4.5500 C   0  0  0  0  0  0  0  0  0  0  0  0
   -3.0050    6.2270    5.2750 H   0  0  0  0  0  0  0  0  0  0  0  0
   -0.0990    4.8330    4.9100 C   0  0  0  0  0  0  0  0  0  0  0  0
   -1.4080    5.6860    3.6390 H   0  0  0  0  0  0  0  0  0  0  0  0
    0.1490    4.5230    6.2260 C   0  0  0  0  0  0  0  0  0  0  0  0
    0.5260    4.5750    4.2430 H   0  0  0  0  0  0  0  0  0  0  0  0
    0.9680    4.1010    6.4590 H   0  0  0  0  0  0  0  0  0  0  0  0
   -0.6120    4.6280    8.1190 H   0  0  0  0  0  0  0  0  0  0  0  0
   -3.3780    3.5710    8.5240 C   0  0  0  0  0  0  0  0  0  0  0  0
   -2.8390    2.8180    9.5760 C   0  0  0  0  0  0  0  0  0  0  0  0
   -3.6520    2.9480    7.3300 C   0  0  0  0  0  0  0  0  0  0  0  0
   -3.3990    1.5810    7.1750 C   0  0  0  0  0  0  0  0  0  0  0  0
   -4.0180    3.4590    6.6190 H   0  0  0  0  0  0  0  0  0  0  0  0
   -2.8610    0.8540    8.1900 C   0  0  0  0  0  0  0  0  0  0  0  0
   -3.5950    1.1580    6.3480 H   0  0  0  0  0  0  0  0  0  0  0  0
   -2.5670    1.4640    9.4030 C   0  0  0  0  0  0  0  0  0  0  0  0
   -2.7000   -0.0750    8.0750 H   0  0  0  0  0  0  0  0  0  0  0  0
   -2.1740    0.9600   10.1050 H   0  0  0  0  0  0  0  0  0  0  0  0
   -2.6760    3.2380   10.4130 H   0  0  0  0  0  0  0  0  0  0  0  0
   -0.9650    8.3790    7.3550 C   0  0  0  0  0  0  0  0  0  0  0  0
   -3.0040    9.1560    6.3730 C   0  0  0  0  0  0  0  0  0  0  0  0
   -2.2720    9.9840    5.5150 C   0  0  0  0  0  0  0  0  0  0  0  0
   -3.9530    9.1680    6.3350 H   0  0  0  0  0  0  0  0  0  0  0  0
   -0.8870    9.9990    5.5550 C   0  0  0  0  0  0  0  0  0  0  0  0
   -2.7290   10.5410    4.8960 H   0  0  0  0  0  0  0  0  0  0  0  0
   -0.2540    9.2110    6.5220 C   0  0  0  0  0  0  0  0  0  0  0  0
    0.6910    9.2600    6.6100 H   0  0  0  0  0  0  0  0  0  0  0  0
   -0.5110    7.8360    7.9880 H   0  0  0  0  0  0  0  0  0  0  0  0
   -5.3150    4.5010   10.4930 C   0  0  0  0  0  0  0  0  0  0  0  0
   -5.1530    4.4620   11.8760 C   0  0  0  0  0  0  0  0  0  0  0  0
   -6.2130    3.6440    9.8900 C   0  0  0  0  0  0  0  0  0  0  0  0
   -6.9690    2.7670   10.6890 C   0  0  0  0  0  0  0  0  0  0  0  0
   -6.3010    3.6350    8.9440 H   0  0  0  0  0  0  0  0  0  0  0  0
   -6.8160    2.7390   12.0430 C   0  0  0  0  0  0  0  0  0  0  0  0
   -7.6100    2.2000   10.2770 H   0  0  0  0  0  0  0  0  0  0  0  0
   -5.9070    3.5660   12.6380 C   0  0  0  0  0  0  0  0  0  0  0  0
   -7.3500    2.1580   12.5720 H   0  0  0  0  0  0  0  0  0  0  0  0
   -5.7660    3.5150   13.5770 H   0  0  0  0  0  0  0  0  0  0  0  0
   -4.5400    5.0550   12.2950 H   0  0  0  0  0  0  0  0  0  0  0  0
   -8.1470    8.6930   13.3880 H   0  0  0  0  0  0  0  0  0  0  0  0
   -0.6220   11.4990    3.9840 H   0  0  0  0  0  0  0  0  0  0  0  0
    0.6220   10.2030    3.9840 H   0  0  0  0  0  0  0  0  0  0  0  0
  1  2  2  0
  1  3  1  0
  1  4  1  0
  2  9  1  0
  2 72  1  0
  3  5  2  0
  3  6  1  0
  5  7  1  0
  5  8  1  0
  7 12  2  0
  7 13  1  0
  8  9  2  0
  8 10  1  0
  9 11  1  0
 12 28  1  0
 12 61  1  0
 13 14  2  0
 13 15  1  0
 14 26  1  0
 14 27  1  0
 15 16  2  0
 15 17  1  0
 16 22  1  0
 16 25  1  0
 17 18  2  0
 17 19  1  0
 18 20  1  0
 18 21  1  0
 20 22  2  0
 20 23  1  0
 22 24  1  0
 26 51  2  0
 26 52  1  0
 27 28  2  0
 27 29  1  0
 28 40  1  0
 29 30  2  0
 29 31  1  0
 30 36  1  0
 30 39  1  0
 31 32  2  0
 31 33  1  0
 32 34  1  0
 32 35  1  0
 34 36  2  0
 34 37  1  0
 36 38  1  0
 40 41  2  0
 40 42  1  0
 41 47  1  0
 41 50  1  0
 42 43  2  0
 42 44  1  0
 43 45  1  0
 43 46  1  0
 45 47  2  0
 45 48  1  0
 47 49  1  0
 51 58  1  0
 51 60  1  0
 52 53  2  0
 52 54  1  0
 53 55  1  0
 53 56  1  0
 55 57  1  0
 55 58  2  0
 57127  1  0
 57144  1  0
 57145  1  0
 58 59  1  0
 61 62  2  0
 61 63  1  0
 62 68  1  0
 62 71  1  0
 63 64  2  0
 63 65  1  0
 64 66  1  0
 64 67  1  0
 66 68  2  0
 66 69  1  0
 68 70  1  0
 73 74  2  0
 73 75  1  0
 73 76  1  0
 74 81  1  0
 74143  1  0
 75 77  2  0
 75 78  1  0
 77 79  1  0
 77 80  1  0
 79 84  2  0
 79 85  1  0
 80 81  2  0
 80 82  1  0
 81 83  1  0
 84100  1  0
 84132  1  0
 85 86  2  0
 85 87  1  0
 86 98  1  0
 86 99  1  0
 87 88  2  0
 87 89  1  0
 88 94  1  0
 88 97  1  0
 89 90  2  0
 89 91  1  0
 90 92  1  0
 90 93  1  0
 92 94  2  0
 92 95  1  0
 94 96  1  0
 98123  2  0
 98124  1  0
 99100  2  0
 99101  1  0
100112  1  0
101102  2  0
101103  1  0
102108  1  0
102111  1  0
103104  2  0
103105  1  0
104106  1  0
104107  1  0
106108  2  0
106109  1  0
108110  1  0
112113  2  0
112114  1  0
113119  1  0
113122  1  0
114115  2  0
114116  1  0
115117  1  0
115118  1  0
117119  2  0
117120  1  0
119121  1  0
123129  1  0
123131  1  0
124125  2  0
124126  1  0
125127  1  0
125128  1  0
127129  2  0
129130  1  0
132133  2  0
132134  1  0
133139  1  0
133142  1  0
134135  2  0
134136  1  0
135137  1  0
135138  1  0
137139  2  0
137140  1  0
139141  1  0
M  END
>  <charge_method>  (1) 
NAGL

>  <metadata>  (1) 
{0: {'residue_name': 'polyphenylene1', 'residue_number': 0, 'insertion_code': ' ', 'chain_id': ' ', 'match_info': '{"0": ["polyphenylene1", 4], "10": ["polyphenylene6", 0], "24": ["polyphenylene2", 0], "36": ["polyphenylene3", 0], "46": ["polyphenylene5", 0]}', 'substructure_query_id': 4}, 1: {'residue_name': 'polyphenylene1', 'residue_number': 0, 'insertion_code': ' ', 'chain_id': ' ', 'match_info': '{"0": ["polyphenylene1", 6], "10": ["polyphenylene6", 2], "24": ["polyphenylene2", 2], "36": ["polyphenylene3", 2], "46": ["polyphenylene5", 10]}', 'substructure_query_id': 6}, 2: {'residue_name': 'polyphenylene1', 'residue_number': 0, 'insertion_code': ' ', 'chain_id': ' ', 'match_info': '{"0": ["polyphenylene1", 2], "10": ["polyphenylene6", 10], "24": ["polyphenylene2", 10], "36": ["polyphenylene3", 10], "46": ["polyphenylene5", 2]}', 'substructure_query_id': 2}, 3: {'residue_name': 'polyphenylene1', 'residue_number': 0, 'insertion_code': ' ', 'chain_id': ' ', 'match_info': '{"0": ["polyphenylene1", 5], "24": ["polyphenylene2", 1]}', 'substructure_query_id': 5}, 4: {'residue_name': 'polyphenylene1', 'residue_number': 0, 'insertion_code': ' ', 'chain_id': ' ', 'match_info': '{"0": ["polyphenylene1", 0], "10": ["polyphenylene6", 8], "24": ["polyphenylene2", 8], "36": ["polyphenylene3", 8], "46": ["polyphenylene5", 4]}', 'substructure_query_id': 0}, 5: {'residue_name': 'polyphenylene1', 'residue_number': 0, 'insertion_code': ' ', 'chain_id': ' ', 'match_info': '{"0": ["polyphenylene1", 3], "24": ["polyphenylene2", 11], "36": ["polyphenylene3", 11]}', 'substructure_query_id': 3}, 6: {'residue_name': 'polyphenylene6', 'residue_number': 11, 'insertion_code': ' ', 'chain_id': ' ', 'match_info': '{"11": ["polyphenylene6", 0]}', 'substructure_query_id': 0}, 7: {'residue_name': 'polyphenylene1', 'residue_number': 0, 'insertion_code': ' ', 'chain_id': ' ', 'match_info': '{"0": ["polyphenylene1", 10], "10": ["polyphenylene6", 6], "24": ["polyphenylene2", 6], "36": ["polyphenylene3", 6], "46": ["polyphenylene5", 6]}', 'substructure_query_id': 10}, 8: {'residue_name': 'polyphenylene1', 'residue_number': 0, 'insertion_code': ' ', 'chain_id': ' ', 'match_info': '{"0": ["polyphenylene1", 8], "10": ["polyphenylene6", 4], "24": ["polyphenylene2", 4], "36": ["polyphenylene3", 4], "46": ["polyphenylene5", 8]}', 'substructure_query_id': 8}, 9: {'residue_name': 'polyphenylene1', 'residue_number': 0, 'insertion_code': ' ', 'chain_id': ' ', 'match_info': '{"0": ["polyphenylene1", 11], "24": ["polyphenylene2", 7], "36": ["polyphenylene3", 7]}', 'substructure_query_id': 11}, 10: {'residue_name': 'polyphenylene1', 'residue_number': 0, 'insertion_code': ' ', 'chain_id': ' ', 'match_info': '{"0": ["polyphenylene1", 9], "24": ["polyphenylene2", 5], "46": ["polyphenylene5", 9]}', 'substructure_query_id': 9}, 11: {'residue_name': 'polyphenylene6', 'residue_number': 11, 'insertion_code': ' ', 'chain_id': ' ', 'match_info': '{"11": ["polyphenylene6", 2]}', 'substructure_query_id': 2}, 12: {'residue_name': 'polyphenylene6', 'residue_number': 11, 'insertion_code': ' ', 'chain_id': ' ', 'match_info': '{"11": ["polyphenylene6", 10]}', 'substructure_query_id': 10}, 13: {'residue_name': 'polyphenylene6', 'residue_number': 11, 'insertion_code': ' ', 'chain_id': ' ', 'match_info': '{"11": ["polyphenylene6", 8]}', 'substructure_query_id': 8}, 14: {'residue_name': 'polyphenylene1', 'residue_number': 1, 'insertion_code': ' ', 'chain_id': ' ', 'match_info': '{"1": ["polyphenylene1", 0], "12": ["polyphenylene6", 0], "25": ["polyphenylene2", 2], "37": ["polyphenylene3", 0], "47": ["polyphenylene5", 0]}', 'substructure_query_id': 0}, 15: {'residue_name': 'polyphenylene1', 'residue_number': 1, 'insertion_code': ' ', 'chain_id': ' ', 'match_info': '{"1": ["polyphenylene1", 2], "12": ["polyphenylene6", 2], "25": ["polyphenylene2", 0], "37": ["polyphenylene3", 2], "47": ["polyphenylene5", 2]}', 'substructure_query_id': 2}, 16: {'residue_name': 'polyphenylene1', 'residue_number': 1, 'insertion_code': ' ', 'chain_id': ' ', 'match_info': '{"1": ["polyphenylene1", 10], "12": ["polyphenylene6", 10], "25": ["polyphenylene2", 4], "37": ["polyphenylene3", 10], "47": ["polyphenylene5", 10]}', 'substructure_query_id': 10}, 17: {'residue_name': 'polyphenylene1', 'residue_number': 1, 'insertion_code': ' ', 'chain_id': ' ', 'match_info': '{"1": ["polyphenylene1", 8], "12": ["polyphenylene6", 8], "25": ["polyphenylene2", 6], "37": ["polyphenylene3", 8], "47": ["polyphenylene5", 8]}', 'substructure_query_id': 8}, 18: {'residue_name': 'polyphenylene1', 'residue_number': 1, 'insertion_code': ' ', 'chain_id': ' ', 'match_info': '{"1": ["polyphenylene1", 11], "25": ["polyphenylene2", 5], "37": ["polyphenylene3", 11]}', 'substructure_query_id': 11}, 19: {'residue_name': 'polyphenylene1', 'residue_number': 1, 'insertion_code': ' ', 'chain_id': ' ', 'match_info': '{"1": ["polyphenylene1", 6], "12": ["polyphenylene6", 6], "25": ["polyphenylene2", 8], "37": ["polyphenylene3", 6], "47": ["polyphenylene5", 6]}', 'substructure_query_id': 6}, 20: {'residue_name': 'polyphenylene1', 'residue_number': 1, 'insertion_code': ' ', 'chain_id': ' ', 'match_info': '{"1": ["polyphenylene1", 9], "25": ["polyphenylene2", 7], "47": ["polyphenylene5", 9]}', 'substructure_query_id': 9}, 21: {'residue_name': 'polyphenylene1', 'residue_number': 1, 'insertion_code': ' ', 'chain_id': ' ', 'match_info': '{"1": ["polyphenylene1", 4], "12": ["polyphenylene6", 4], "25": ["polyphenylene2", 10], "37": ["polyphenylene3", 4], "47": ["polyphenylene5", 4]}', 'substructure_query_id': 4}, 22: {'residue_name': 'polyphenylene1', 'residue_number': 1, 'insertion_code': ' ', 'chain_id': ' ', 'match_info': '{"1": ["polyphenylene1", 7], "37": ["polyphenylene3", 7]}', 'substructure_query_id': 7}, 23: {'residue_name': 'polyphenylene1', 'residue_number': 1, 'insertion_code': ' ', 'chain_id': ' ', 'match_info': '{"1": ["polyphenylene1", 5], "25": ["polyphenylene2", 11]}', 'substructure_query_id': 5}, 24: {'residue_name': 'polyphenylene1', 'residue_number': 1, 'insertion_code': ' ', 'chain_id': ' ', 'match_info': '{"1": ["polyphenylene1", 3], "25": ["polyphenylene2", 1], "37": ["polyphenylene3", 3]}', 'substructure_query_id': 3}, 25: {'residue_name': 'polyphenylene_mid', 'residue_number': 58, 'insertion_code': ' ', 'chain_id': ' ', 'match_info': '{"13": ["polyphenylene6", 0], "28": ["polyphenylene2", 2], "48": ["polyphenylene5", 0], "58": ["polyphenylene_mid", 0]}', 'substructure_query_id': 0}, 26: {'residue_name': 'polyphenylene6', 'residue_number': 11, 'insertion_code': ' ', 'chain_id': ' ', 'match_info': '{"11": ["polyphenylene6", 6]}', 'substructure_query_id': 6}, 27: {'residue_name': 'polyphenylene6', 'residue_number': 11, 'insertion_code': ' ', 'chain_id': ' ', 'match_info': '{"11": ["polyphenylene6", 4]}', 'substructure_query_id': 4}, 28: {'residue_name': 'polyphenylene1', 'residue_number': 2, 'insertion_code': ' ', 'chain_id': ' ', 'match_info': '{"2": ["polyphenylene1", 0], "14": ["polyphenylene6", 0], "26": ["polyphenylene2", 2], "38": ["polyphenylene3", 0], "49": ["polyphenylene5", 0]}', 'substructure_query_id': 0}, 29: {'residue_name': 'polyphenylene1', 'residue_number': 2, 'insertion_code': ' ', 'chain_id': ' ', 'match_info': '{"2": ["polyphenylene1", 2], "14": ["polyphenylene6", 2], "26": ["polyphenylene2", 0], "38": ["polyphenylene3", 2], "49": ["polyphenylene5", 2]}', 'substructure_query_id': 2}, 30: {'residue_name': 'polyphenylene1', 'residue_number': 2, 'insertion_code': ' ', 'chain_id': ' ', 'match_info': '{"2": ["polyphenylene1", 10], "14": ["polyphenylene6", 10], "26": ["polyphenylene2", 4], "38": ["polyphenylene3", 10], "49": ["polyphenylene5", 10]}', 'substructure_query_id': 10}, 31: {'residue_name': 'polyphenylene1', 'residue_number': 2, 'insertion_code': ' ', 'chain_id': ' ', 'match_info': '{"2": ["polyphenylene1", 8], "14": ["polyphenylene6", 8], "26": ["polyphenylene2", 6], "38": ["polyphenylene3", 8], "49": ["polyphenylene5", 8]}', 'substructure_query_id': 8}, 32: {'residue_name': 'polyphenylene1', 'residue_number': 2, 'insertion_code': ' ', 'chain_id': ' ', 'match_info': '{"2": ["polyphenylene1", 11], "26": ["polyphenylene2", 5], "38": ["polyphenylene3", 11]}', 'substructure_query_id': 11}, 33: {'residue_name': 'polyphenylene1', 'residue_number': 2, 'insertion_code': ' ', 'chain_id': ' ', 'match_info': '{"2": ["polyphenylene1", 6], "14": ["polyphenylene6", 6], "26": ["polyphenylene2", 8], "38": ["polyphenylene3", 6], "49": ["polyphenylene5", 6]}', 'substructure_query_id': 6}, 34: {'residue_name': 'polyphenylene1', 'residue_number': 2, 'insertion_code': ' ', 'chain_id': ' ', 'match_info': '{"2": ["polyphenylene1", 9], "26": ["polyphenylene2", 7], "49": ["polyphenylene5", 9]}', 'substructure_query_id': 9}, 35: {'residue_name': 'polyphenylene1', 'residue_number': 2, 'insertion_code': ' ', 'chain_id': ' ', 'match_info': '{"2": ["polyphenylene1", 4], "14": ["polyphenylene6", 4], "26": ["polyphenylene2", 10], "38": ["polyphenylene3", 4], "49": ["polyphenylene5", 4]}', 'substructure_query_id': 4}, 36: {'residue_name': 'polyphenylene1', 'residue_number': 2, 'insertion_code': ' ', 'chain_id': ' ', 'match_info': '{"2": ["polyphenylene1", 7], "38": ["polyphenylene3", 7]}', 'substructure_query_id': 7}, 37: {'residue_name': 'polyphenylene1', 'residue_number': 2, 'insertion_code': ' ', 'chain_id': ' ', 'match_info': '{"2": ["polyphenylene1", 5], "26": ["polyphenylene2", 11]}', 'substructure_query_id': 5}, 38: {'residue_name': 'polyphenylene1', 'residue_number': 2, 'insertion_code': ' ', 'chain_id': ' ', 'match_info': '{"2": ["polyphenylene1", 3], "26": ["polyphenylene2", 1], "38": ["polyphenylene3", 3]}', 'substructure_query_id': 3}, 39: {'residue_name': 'polyphenylene1', 'residue_number': 3, 'insertion_code': ' ', 'chain_id': ' ', 'match_info': '{"3": ["polyphenylene1", 0], "15": ["polyphenylene6", 0], "27": ["polyphenylene2", 2], "39": ["polyphenylene3", 0], "50": ["polyphenylene5", 0]}', 'substructure_query_id': 0}, 40: {'residue_name': 'polyphenylene1', 'residue_number': 3, 'insertion_code': ' ', 'chain_id': ' ', 'match_info': '{"3": ["polyphenylene1", 2], "15": ["polyphenylene6", 2], "27": ["polyphenylene2", 0], "39": ["polyphenylene3", 2], "50": ["polyphenylene5", 2]}', 'substructure_query_id': 2}, 41: {'residue_name': 'polyphenylene1', 'residue_number': 3, 'insertion_code': ' ', 'chain_id': ' ', 'match_info': '{"3": ["polyphenylene1", 10], "15": ["polyphenylene6", 10], "27": ["polyphenylene2", 4], "39": ["polyphenylene3", 10], "50": ["polyphenylene5", 10]}', 'substructure_query_id': 10}, 42: {'residue_name': 'polyphenylene1', 'residue_number': 3, 'insertion_code': ' ', 'chain_id': ' ', 'match_info': '{"3": ["polyphenylene1", 8], "15": ["polyphenylene6", 8], "27": ["polyphenylene2", 6], "39": ["polyphenylene3", 8], "50": ["polyphenylene5", 8]}', 'substructure_query_id': 8}, 43: {'residue_name': 'polyphenylene1', 'residue_number': 3, 'insertion_code': ' ', 'chain_id': ' ', 'match_info': '{"3": ["polyphenylene1", 11], "27": ["polyphenylene2", 5], "39": ["polyphenylene3", 11]}', 'substructure_query_id': 11}, 44: {'residue_name': 'polyphenylene1', 'residue_number': 3, 'insertion_code': ' ', 'chain_id': ' ', 'match_info': '{"3": ["polyphenylene1", 6], "15": ["polyphenylene6", 6], "27": ["polyphenylene2", 8], "39": ["polyphenylene3", 6], "50": ["polyphenylene5", 6]}', 'substructure_query_id': 6}, 45: {'residue_name': 'polyphenylene1', 'residue_number': 3, 'insertion_code': ' ', 'chain_id': ' ', 'match_info': '{"3": ["polyphenylene1", 9], "27": ["polyphenylene2", 7], "50": ["polyphenylene5", 9]}', 'substructure_query_id': 9}, 46: {'residue_name': 'polyphenylene1', 'residue_number': 3, 'insertion_code': ' ', 'chain_id': ' ', 'match_info': '{"3": ["polyphenylene1", 4], "15": ["polyphenylene6", 4], "27": ["polyphenylene2", 10], "39": ["polyphenylene3", 4], "50": ["polyphenylene5", 4]}', 'substructure_query_id': 4}, 47: {'residue_name': 'polyphenylene1', 'residue_number': 3, 'insertion_code': ' ', 'chain_id': ' ', 'match_info': '{"3": ["polyphenylene1", 7], "39": ["polyphenylene3", 7]}', 'substructure_query_id': 7}, 48: {'residue_name': 'polyphenylene1', 'residue_number': 3, 'insertion_code': ' ', 'chain_id': ' ', 'match_info': '{"3": ["polyphenylene1", 5], "27": ["polyphenylene2", 11]}', 'substructure_query_id': 5}, 49: {'residue_name': 'polyphenylene1', 'residue_number': 3, 'insertion_code': ' ', 'chain_id': ' ', 'match_info': '{"3": ["polyphenylene1", 3], "27": ["polyphenylene2", 1], "39": ["polyphenylene3", 3]}', 'substructure_query_id': 3}, 50: {'residue_name': 'polyphenylene_mid', 'residue_number': 58, 'insertion_code': ' ', 'chain_id': ' ', 'match_info': '{"13": ["polyphenylene6", 2], "28": ["polyphenylene2", 0], "48": ["polyphenylene5", 2], "58": ["polyphenylene_mid", 2]}', 'substructure_query_id': 2}, 51: {'residue_name': 'polyphenylene_mid', 'residue_number': 58, 'insertion_code': ' ', 'chain_id': ' ', 'match_info': '{"13": ["polyphenylene6", 10], "28": ["polyphenylene2", 4], "48": ["polyphenylene5", 10], "58": ["polyphenylene_mid", 23]}', 'substructure_query_id': 23}, 52: {'residue_name': 'polyphenylene_mid', 'residue_number': 58, 'insertion_code': ' ', 'chain_id': ' ', 'match_info': '{"13": ["polyphenylene6", 8], "28": ["polyphenylene2", 6], "48": ["polyphenylene5", 8], "58": ["polyphenylene_mid", 21]}', 'substructure_query_id': 21}, 53: {'residue_name': 'polyphenylene_mid', 'residue_number': 58, 'insertion_code': ' ', 'chain_id': ' ', 'match_info': '{"28": ["polyphenylene2", 5], "58": ["polyphenylene_mid", 24]}', 'substructure_query_id': 24}, 54: {'residue_name': 'polyphenylene_mid', 'residue_number': 58, 'insertion_code': ' ', 'chain_id': ' ', 'match_info': '{"13": ["polyphenylene6", 6], "28": ["polyphenylene2", 8], "48": ["polyphenylene5", 6], "58": ["polyphenylene_mid", 6]}', 'substructure_query_id': 6}, 55: {'residue_name': 'polyphenylene_mid', 'residue_number': 58, 'insertion_code': ' ', 'chain_id': ' ', 'match_info': '{"28": ["polyphenylene2", 7], "48": ["polyphenylene5", 9], "58": ["polyphenylene_mid", 22]}', 'substructure_query_id': 22}, 56: {'residue_name': 'polyphenylene_mid', 'residue_number': 58, 'insertion_code': ' ', 'chain_id': ' ', 'match_info': '{"58": ["polyphenylene_mid", 7]}', 'substructure_query_id': 7}, 57: {'residue_name': 'polyphenylene_mid', 'residue_number': 58, 'insertion_code': ' ', 'chain_id': ' ', 'match_info': '{"13": ["polyphenylene6", 4], "28": ["polyphenylene2", 10], "48": ["polyphenylene5", 4], "58": ["polyphenylene_mid", 4]}', 'substructure_query_id': 4}, 58: {'residue_name': 'polyphenylene_mid', 'residue_number': 58, 'insertion_code': ' ', 'chain_id': ' ', 'match_info': '{"28": ["polyphenylene2", 11], "58": ["polyphenylene_mid", 5]}', 'substructure_query_id': 5}, 59: {'residue_name': 'polyphenylene_mid', 'residue_number': 58, 'insertion_code': ' ', 'chain_id': ' ', 'match_info': '{"28": ["polyphenylene2", 1], "58": ["polyphenylene_mid", 3]}', 'substructure_query_id': 3}, 60: {'residue_name': 'polyphenylene1', 'residue_number': 4, 'insertion_code': ' ', 'chain_id': ' ', 'match_info': '{"4": ["polyphenylene1", 0], "16": ["polyphenylene6", 0], "29": ["polyphenylene2", 2], "40": ["polyphenylene3", 0], "51": ["polyphenylene5", 0]}', 'substructure_query_id': 0}, 61: {'residue_name': 'polyphenylene1', 'residue_number': 4, 'insertion_code': ' ', 'chain_id': ' ', 'match_info': '{"4": ["polyphenylene1", 2], "16": ["polyphenylene6", 2], "29": ["polyphenylene2", 0], "40": ["polyphenylene3", 2], "51": ["polyphenylene5", 2]}', 'substructure_query_id': 2}, 62: {'residue_name': 'polyphenylene1', 'residue_number': 4, 'insertion_code': ' ', 'chain_id': ' ', 'match_info': '{"4": ["polyphenylene1", 10], "16": ["polyphenylene6", 10], "29": ["polyphenylene2", 4], "40": ["polyphenylene3", 10], "51": ["polyphenylene5", 10]}', 'substructure_query_id': 10}, 63: {'residue_name': 'polyphenylene1', 'residue_number': 4, 'insertion_code': ' ', 'chain_id': ' ', 'match_info': '{"4": ["polyphenylene1", 8], "16": ["polyphenylene6", 8], "29": ["polyphenylene2", 6], "40": ["polyphenylene3", 8], "51": ["polyphenylene5", 8]}', 'substructure_query_id': 8}, 64: {'residue_name': 'polyphenylene1', 'residue_number': 4, 'insertion_code': ' ', 'chain_id': ' ', 'match_info': '{"4": ["polyphenylene1", 11], "29": ["polyphenylene2", 5], "40": ["polyphenylene3", 11]}', 'substructure_query_id': 11}, 65: {'residue_name': 'polyphenylene1', 'residue_number': 4, 'insertion_code': ' ', 'chain_id': ' ', 'match_info': '{"4": ["polyphenylene1", 6], "16": ["polyphenylene6", 6], "29": ["polyphenylene2", 8], "40": ["polyphenylene3", 6], "51": ["polyphenylene5", 6]}', 'substructure_query_id': 6}, 66: {'residue_name': 'polyphenylene1', 'residue_number': 4, 'insertion_code': ' ', 'chain_id': ' ', 'match_info': '{"4": ["polyphenylene1", 9], "29": ["polyphenylene2", 7], "51": ["polyphenylene5", 9]}', 'substructure_query_id': 9}, 67: {'residue_name': 'polyphenylene1', 'residue_number': 4, 'insertion_code': ' ', 'chain_id': ' ', 'match_info': '{"4": ["polyphenylene1", 4], "16": ["polyphenylene6", 4], "29": ["polyphenylene2", 10], "40": ["polyphenylene3", 4], "51": ["polyphenylene5", 4]}', 'substructure_query_id': 4}, 68: {'residue_name': 'polyphenylene1', 'residue_number': 4, 'insertion_code': ' ', 'chain_id': ' ', 'match_info': '{"4": ["polyphenylene1", 7], "40": ["polyphenylene3", 7]}', 'substructure_query_id': 7}, 69: {'residue_name': 'polyphenylene1', 'residue_number': 4, 'insertion_code': ' ', 'chain_id': ' ', 'match_info': '{"4": ["polyphenylene1", 5], "29": ["polyphenylene2", 11]}', 'substructure_query_id': 5}, 70: {'residue_name': 'polyphenylene1', 'residue_number': 4, 'insertion_code': ' ', 'chain_id': ' ', 'match_info': '{"4": ["polyphenylene1", 3], "29": ["polyphenylene2", 1], "40": ["polyphenylene3", 3]}', 'substructure_query_id': 3}, 71: {'residue_name': 'polyphenylene1', 'residue_number': 0, 'insertion_code': ' ', 'chain_id': ' ', 'match_info': '{"0": ["polyphenylene1", 7], "36": ["polyphenylene3", 3]}', 'substructure_query_id': 7}, 72: {'residue_name': 'polyphenylene1', 'residue_number': 5, 'insertion_code': ' ', 'chain_id': ' ', 'match_info': '{"5": ["polyphenylene1", 4], "17": ["polyphenylene6", 0], "30": ["polyphenylene2", 0], "41": ["polyphenylene3", 0], "52": ["polyphenylene5", 0]}', 'substructure_query_id': 4}, 73: {'residue_name': 'polyphenylene1', 'residue_number': 5, 'insertion_code': ' ', 'chain_id': ' ', 'match_info': '{"5": ["polyphenylene1", 6], "17": ["polyphenylene6", 2], "30": ["polyphenylene2", 2], "41": ["polyphenylene3", 2], "52": ["polyphenylene5", 10]}', 'substructure_query_id': 6}, 74: {'residue_name': 'polyphenylene1', 'residue_number': 5, 'insertion_code': ' ', 'chain_id': ' ', 'match_info': '{"5": ["polyphenylene1", 2], "17": ["polyphenylene6", 10], "30": ["polyphenylene2", 10], "41": ["polyphenylene3", 10], "52": ["polyphenylene5", 2]}', 'substructure_query_id': 2}, 75: {'residue_name': 'polyphenylene1', 'residue_number': 5, 'insertion_code': ' ', 'chain_id': ' ', 'match_info': '{"5": ["polyphenylene1", 5], "30": ["polyphenylene2", 1]}', 'substructure_query_id': 5}, 76: {'residue_name': 'polyphenylene1', 'residue_number': 5, 'insertion_code': ' ', 'chain_id': ' ', 'match_info': '{"5": ["polyphenylene1", 0], "17": ["polyphenylene6", 8], "30": ["polyphenylene2", 8], "41": ["polyphenylene3", 8], "52": ["polyphenylene5", 4]}', 'substructure_query_id': 0}, 77: {'residue_name': 'polyphenylene1', 'residue_number': 5, 'insertion_code': ' ', 'chain_id': ' ', 'match_info': '{"5": ["polyphenylene1", 3], "30": ["polyphenylene2", 11], "41": ["polyphenylene3", 11]}', 'substructure_query_id': 3}, 78: {'residue_name': 'polyphenylene6', 'residue_number': 18, 'insertion_code': ' ', 'chain_id': ' ', 'match_info': '{"18": ["polyphenylene6", 0]}', 'substructure_query_id': 0}, 79: {'residue_name': 'polyphenylene1', 'residue_number': 5, 'insertion_code': ' ', 'chain_id': ' ', 'match_info': '{"5": ["polyphenylene1", 10], "17": ["polyphenylene6", 6], "30": ["polyphenylene2", 6], "41": ["polyphenylene3", 6], "52": ["polyphenylene5", 6]}', 'substructure_query_id': 10}, 80: {'residue_name': 'polyphenylene1', 'residue_number': 5, 'insertion_code': ' ', 'chain_id': ' ', 'match_info': '{"5": ["polyphenylene1", 8], "17": ["polyphenylene6", 4], "30": ["polyphenylene2", 4], "41": ["polyphenylene3", 4], "52": ["polyphenylene5", 8]}', 'substructure_query_id': 8}, 81: {'residue_name': 'polyphenylene1', 'residue_number': 5, 'insertion_code': ' ', 'chain_id': ' ', 'match_info': '{"5": ["polyphenylene1", 11], "30": ["polyphenylene2", 7], "41": ["polyphenylene3", 7]}', 'substructure_query_id': 11}, 82: {'residue_name': 'polyphenylene1', 'residue_number': 5, 'insertion_code': ' ', 'chain_id': ' ', 'match_info': '{"5": ["polyphenylene1", 9], "30": ["polyphenylene2", 5], "52": ["polyphenylene5", 9]}', 'substructure_query_id': 9}, 83: {'residue_name': 'polyphenylene6', 'residue_number': 18, 'insertion_code': ' ', 'chain_id': ' ', 'match_info': '{"18": ["polyphenylene6", 2]}', 'substructure_query_id': 2}, 84: {'residue_name': 'polyphenylene6', 'residue_number': 18, 'insertion_code': ' ', 'chain_id': ' ', 'match_info': '{"18": ["polyphenylene6", 10]}', 'substructure_query_id': 10}, 85: {'residue_name': 'polyphenylene6', 'residue_number': 18, 'insertion_code': ' ', 'chain_id': ' ', 'match_info': '{"18": ["polyphenylene6", 8]}', 'substructure_query_id': 8}, 86: {'residue_name': 'polyphenylene1', 'residue_number': 6, 'insertion_code': ' ', 'chain_id': ' ', 'match_info': '{"6": ["polyphenylene1", 0], "19": ["polyphenylene6", 0], "31": ["polyphenylene2", 2], "42": ["polyphenylene3", 0], "53": ["polyphenylene5", 0]}', 'substructure_query_id': 0}, 87: {'residue_name': 'polyphenylene1', 'residue_number': 6, 'insertion_code': ' ', 'chain_id': ' ', 'match_info': '{"6": ["polyphenylene1", 2], "19": ["polyphenylene6", 2], "31": ["polyphenylene2", 0], "42": ["polyphenylene3", 2], "53": ["polyphenylene5", 2]}', 'substructure_query_id': 2}, 88: {'residue_name': 'polyphenylene1', 'residue_number': 6, 'insertion_code': ' ', 'chain_id': ' ', 'match_info': '{"6": ["polyphenylene1", 10], "19": ["polyphenylene6", 10], "31": ["polyphenylene2", 4], "42": ["polyphenylene3", 10], "53": ["polyphenylene5", 10]}', 'substructure_query_id': 10}, 89: {'residue_name': 'polyphenylene1', 'residue_number': 6, 'insertion_code': ' ', 'chain_id': ' ', 'match_info': '{"6": ["polyphenylene1", 8], "19": ["polyphenylene6", 8], "31": ["polyphenylene2", 6], "42": ["polyphenylene3", 8], "53": ["polyphenylene5", 8]}', 'substructure_query_id': 8}, 90: {'residue_name': 'polyphenylene1', 'residue_number': 6, 'insertion_code': ' ', 'chain_id': ' ', 'match_info': '{"6": ["polyphenylene1", 11], "31": ["polyphenylene2", 5], "42": ["polyphenylene3", 11]}', 'substructure_query_id': 11}, 91: {'residue_name': 'polyphenylene1', 'residue_number': 6, 'insertion_code': ' ', 'chain_id': ' ', 'match_info': '{"6": ["polyphenylene1", 6], "19": ["polyphenylene6", 6], "31": ["polyphenylene2", 8], "42": ["polyphenylene3", 6], "53": ["polyphenylene5", 6]}', 'substructure_query_id': 6}, 92: {'residue_name': 'polyphenylene1', 'residue_number': 6, 'insertion_code': ' ', 'chain_id': ' ', 'match_info': '{"6": ["polyphenylene1", 9], "31": ["polyphenylene2", 7], "53": ["polyphenylene5", 9]}', 'substructure_query_id': 9}, 93: {'residue_name': 'polyphenylene1', 'residue_number': 6, 'insertion_code': ' ', 'chain_id': ' ', 'match_info': '{"6": ["polyphenylene1", 4], "19": ["polyphenylene6", 4], "31": ["polyphenylene2", 10], "42": ["polyphenylene3", 4], "53": ["polyphenylene5", 4]}', 'substructure_query_id': 4}, 94: {'residue_name': 'polyphenylene1', 'residue_number': 6, 'insertion_code': ' ', 'chain_id': ' ', 'match_info': '{"6": ["polyphenylene1", 7], "42": ["polyphenylene3", 7]}', 'substructure_query_id': 7}, 95: {'residue_name': 'polyphenylene1', 'residue_number': 6, 'insertion_code': ' ', 'chain_id': ' ', 'match_info': '{"6": ["polyphenylene1", 5], "31": ["polyphenylene2", 11]}', 'substructure_query_id': 5}, 96: {'residue_name': 'polyphenylene1', 'residue_number': 6, 'insertion_code': ' ', 'chain_id': ' ', 'match_info': '{"6": ["polyphenylene1", 3], "31": ["polyphenylene2", 1], "42": ["polyphenylene3", 3]}', 'substructure_query_id': 3}, 97: {'residue_name': 'polyphenylene_mid', 'residue_number': 58, 'insertion_code': ' ', 'chain_id': ' ', 'match_info': '{"20": ["polyphenylene6", 0], "34": ["polyphenylene2", 2], "54": ["polyphenylene5", 0], "58": ["polyphenylene_mid", 13]}', 'substructure_query_id': 13}, 98: {'residue_name': 'polyphenylene6', 'residue_number': 18, 'insertion_code': ' ', 'chain_id': ' ', 'match_info': '{"18": ["polyphenylene6", 6]}', 'substructure_query_id': 6}, 99: {'residue_name': 'polyphenylene6', 'residue_number': 18, 'insertion_code': ' ', 'chain_id': ' ', 'match_info': '{"18": ["polyphenylene6", 4]}', 'substructure_query_id': 4}, 100: {'residue_name': 'polyphenylene1', 'residue_number': 7, 'insertion_code': ' ', 'chain_id': ' ', 'match_info': '{"7": ["polyphenylene1", 0], "21": ["polyphenylene6", 0], "32": ["polyphenylene2", 2], "43": ["polyphenylene3", 0], "55": ["polyphenylene5", 0]}', 'substructure_query_id': 0}, 101: {'residue_name': 'polyphenylene1', 'residue_number': 7, 'insertion_code': ' ', 'chain_id': ' ', 'match_info': '{"7": ["polyphenylene1", 2], "21": ["polyphenylene6", 2], "32": ["polyphenylene2", 0], "43": ["polyphenylene3", 2], "55": ["polyphenylene5", 2]}', 'substructure_query_id': 2}, 102: {'residue_name': 'polyphenylene1', 'residue_number': 7, 'insertion_code': ' ', 'chain_id': ' ', 'match_info': '{"7": ["polyphenylene1", 10], "21": ["polyphenylene6", 10], "32": ["polyphenylene2", 4], "43": ["polyphenylene3", 10], "55": ["polyphenylene5", 10]}', 'substructure_query_id': 10}, 103: {'residue_name': 'polyphenylene1', 'residue_number': 7, 'insertion_code': ' ', 'chain_id': ' ', 'match_info': '{"7": ["polyphenylene1", 8], "21": ["polyphenylene6", 8], "32": ["polyphenylene2", 6], "43": ["polyphenylene3", 8], "55": ["polyphenylene5", 8]}', 'substructure_query_id': 8}, 104: {'residue_name': 'polyphenylene1', 'residue_number': 7, 'insertion_code': ' ', 'chain_id': ' ', 'match_info': '{"7": ["polyphenylene1", 11], "32": ["polyphenylene2", 5], "43": ["polyphenylene3", 11]}', 'substructure_query_id': 11}, 105: {'residue_name': 'polyphenylene1', 'residue_number': 7, 'insertion_code': ' ', 'chain_id': ' ', 'match_info': '{"7": ["polyphenylene1", 6], "21": ["polyphenylene6", 6], "32": ["polyphenylene2", 8], "43": ["polyphenylene3", 6], "55": ["polyphenylene5", 6]}', 'substructure_query_id': 6}, 106: {'residue_name': 'polyphenylene1', 'residue_number': 7, 'insertion_code': ' ', 'chain_id': ' ', 'match_info': '{"7": ["polyphenylene1", 9], "32": ["polyphenylene2", 7], "55": ["polyphenylene5", 9]}', 'substructure_query_id': 9}, 107: {'residue_name': 'polyphenylene1', 'residue_number': 7, 'insertion_code': ' ', 'chain_id': ' ', 'match_info': '{"7": ["polyphenylene1", 4], "21": ["polyphenylene6", 4], "32": ["polyphenylene2", 10], "43": ["polyphenylene3", 4], "55": ["polyphenylene5", 4]}', 'substructure_query_id': 4}, 108: {'residue_name': 'polyphenylene1', 'residue_number': 7, 'insertion_code': ' ', 'chain_id': ' ', 'match_info': '{"7": ["polyphenylene1", 7], "43": ["polyphenylene3", 7]}', 'substructure_query_id': 7}, 109: {'residue_name': 'polyphenylene1', 'residue_number': 7, 'insertion_code': ' ', 'chain_id': ' ', 'match_info': '{"7": ["polyphenylene1", 5], "32": ["polyphenylene2", 11]}', 'substructure_query_id': 5}, 110: {'residue_name': 'polyphenylene1', 'residue_number': 7, 'insertion_code': ' ', 'chain_id': ' ', 'match_info': '{"7": ["polyphenylene1", 3], "32": ["polyphenylene2", 1], "43": ["polyphenylene3", 3]}', 'substructure_query_id': 3}, 111: {'residue_name': 'polyphenylene1', 'residue_number': 8, 'insertion_code': ' ', 'chain_id': ' ', 'match_info': '{"8": ["polyphenylene1", 0], "22": ["polyphenylene6", 0], "33": ["polyphenylene2", 2], "44": ["polyphenylene3", 0], "56": ["polyphenylene5", 0]}', 'substructure_query_id': 0}, 112: {'residue_name': 'polyphenylene1', 'residue_number': 8, 'insertion_code': ' ', 'chain_id': ' ', 'match_info': '{"8": ["polyphenylene1", 2], "22": ["polyphenylene6", 2], "33": ["polyphenylene2", 0], "44": ["polyphenylene3", 2], "56": ["polyphenylene5", 2]}', 'substructure_query_id': 2}, 113: {'residue_name': 'polyphenylene1', 'residue_number': 8, 'insertion_code': ' ', 'chain_id': ' ', 'match_info': '{"8": ["polyphenylene1", 10], "22": ["polyphenylene6", 10], "33": ["polyphenylene2", 4], "44": ["polyphenylene3", 10], "56": ["polyphenylene5", 10]}', 'substructure_query_id': 10}, 114: {'residue_name': 'polyphenylene1', 'residue_number': 8, 'insertion_code': ' ', 'chain_id': ' ', 'match_info': '{"8": ["polyphenylene1", 8], "22": ["polyphenylene6", 8], "33": ["polyphenylene2", 6], "44": ["polyphenylene3", 8], "56": ["polyphenylene5", 8]}', 'substructure_query_id': 8}, 115: {'residue_name': 'polyphenylene1', 'residue_number': 8, 'insertion_code': ' ', 'chain_id': ' ', 'match_info': '{"8": ["polyphenylene1", 11], "33": ["polyphenylene2", 5], "44": ["polyphenylene3", 11]}', 'substructure_query_id': 11}, 116: {'residue_name': 'polyphenylene1', 'residue_number': 8, 'insertion_code': ' ', 'chain_id': ' ', 'match_info': '{"8": ["polyphenylene1", 6], "22": ["polyphenylene6", 6], "33": ["polyphenylene2", 8], "44": ["polyphenylene3", 6], "56": ["polyphenylene5", 6]}', 'substructure_query_id': 6}, 117: {'residue_name': 'polyphenylene1', 'residue_number': 8, 'insertion_code': ' ', 'chain_id': ' ', 'match_info': '{"8": ["polyphenylene1", 9], "33": ["polyphenylene2", 7], "56": ["polyphenylene5", 9]}', 'substructure_query_id': 9}, 118: {'residue_name': 'polyphenylene1', 'residue_number': 8, 'insertion_code': ' ', 'chain_id': ' ', 'match_info': '{"8": ["polyphenylene1", 4], "22": ["polyphenylene6", 4], "33": ["polyphenylene2", 10], "44": ["polyphenylene3", 4], "56": ["polyphenylene5", 4]}', 'substructure_query_id': 4}, 119: {'residue_name': 'polyphenylene1', 'residue_number': 8, 'insertion_code': ' ', 'chain_id': ' ', 'match_info': '{"8": ["polyphenylene1", 7], "44": ["polyphenylene3", 7]}', 'substructure_query_id': 7}, 120: {'residue_name': 'polyphenylene1', 'residue_number': 8, 'insertion_code': ' ', 'chain_id': ' ', 'match_info': '{"8": ["polyphenylene1", 5], "33": ["polyphenylene2", 11]}', 'substructure_query_id': 5}, 121: {'residue_name': 'polyphenylene1', 'residue_number': 8, 'insertion_code': ' ', 'chain_id': ' ', 'match_info': '{"8": ["polyphenylene1", 3], "33": ["polyphenylene2", 1], "44": ["polyphenylene3", 3]}', 'substructure_query_id': 3}, 122: {'residue_name': 'polyphenylene_mid', 'residue_number': 58, 'insertion_code': ' ', 'chain_id': ' ', 'match_info': '{"20": ["polyphenylene6", 2], "34": ["polyphenylene2", 0], "54": ["polyphenylene5", 2], "58": ["polyphenylene_mid", 15]}', 'substructure_query_id': 15}, 123: {'residue_name': 'polyphenylene_mid', 'residue_number': 58, 'insertion_code': ' ', 'chain_id': ' ', 'match_info': '{"20": ["polyphenylene6", 10], "34": ["polyphenylene2", 4], "54": ["polyphenylene5", 10], "58": ["polyphenylene_mid", 11]}', 'substructure_query_id': 11}, 124: {'residue_name': 'polyphenylene_mid', 'residue_number': 58, 'insertion_code': ' ', 'chain_id': ' ', 'match_info': '{"20": ["polyphenylene6", 8], "34": ["polyphenylene2", 6], "54": ["polyphenylene5", 8], "58": ["polyphenylene_mid", 9]}', 'substructure_query_id': 9}, 125: {'residue_name': 'polyphenylene_mid', 'residue_number': 58, 'insertion_code': ' ', 'chain_id': ' ', 'match_info': '{"34": ["polyphenylene2", 5], "58": ["polyphenylene_mid", 12]}', 'substructure_query_id': 12}, 126: {'residue_name': 'polyphenylene_mid', 'residue_number': 58, 'insertion_code': ' ', 'chain_id': ' ', 'match_info': '{"20": ["polyphenylene6", 6], "34": ["polyphenylene2", 8], "54": ["polyphenylene5", 6], "58": ["polyphenylene_mid", 8]}', 'substructure_query_id': 8}, 127: {'residue_name': 'polyphenylene_mid', 'residue_number': 58, 'insertion_code': ' ', 'chain_id': ' ', 'match_info': '{"34": ["polyphenylene2", 7], "54": ["polyphenylene5", 9], "58": ["polyphenylene_mid", 10]}', 'substructure_query_id': 10}, 128: {'residue_name': 'polyphenylene_mid', 'residue_number': 58, 'insertion_code': ' ', 'chain_id': ' ', 'match_info': '{"20": ["polyphenylene6", 4], "34": ["polyphenylene2", 10], "54": ["polyphenylene5", 4], "58": ["polyphenylene_mid", 17]}', 'substructure_query_id': 17}, 129: {'residue_name': 'polyphenylene_mid', 'residue_number': 58, 'insertion_code': ' ', 'chain_id': ' ', 'match_info': '{"34": ["polyphenylene2", 11], "58": ["polyphenylene_mid", 18]}', 'substructure_query_id': 18}, 130: {'residue_name': 'polyphenylene_mid', 'residue_number': 58, 'insertion_code': ' ', 'chain_id': ' ', 'match_info': '{"34": ["polyphenylene2", 1], "58": ["polyphenylene_mid", 16]}', 'substructure_query_id': 16}, 131: {'residue_name': 'polyphenylene1', 'residue_number': 9, 'insertion_code': ' ', 'chain_id': ' ', 'match_info': '{"9": ["polyphenylene1", 0], "23": ["polyphenylene6", 0], "35": ["polyphenylene2", 2], "45": ["polyphenylene3", 0], "57": ["polyphenylene5", 0]}', 'substructure_query_id': 0}, 132: {'residue_name': 'polyphenylene1', 'residue_number': 9, 'insertion_code': ' ', 'chain_id': ' ', 'match_info': '{"9": ["polyphenylene1", 2], "23": ["polyphenylene6", 2], "35": ["polyphenylene2", 0], "45": ["polyphenylene3", 2], "57": ["polyphenylene5", 2]}', 'substructure_query_id': 2}, 133: {'residue_name': 'polyphenylene1', 'residue_number': 9, 'insertion_code': ' ', 'chain_id': ' ', 'match_info': '{"9": ["polyphenylene1", 10], "23": ["polyphenylene6", 10], "35": ["polyphenylene2", 4], "45": ["polyphenylene3", 10], "57": ["polyphenylene5", 10]}', 'substructure_query_id': 10}, 134: {'residue_name': 'polyphenylene1', 'residue_number': 9, 'insertion_code': ' ', 'chain_id': ' ', 'match_info': '{"9": ["polyphenylene1", 8], "23": ["polyphenylene6", 8], "35": ["polyphenylene2", 6], "45": ["polyphenylene3", 8], "57": ["polyphenylene5", 8]}', 'substructure_query_id': 8}, 135: {'residue_name': 'polyphenylene1', 'residue_number': 9, 'insertion_code': ' ', 'chain_id': ' ', 'match_info': '{"9": ["polyphenylene1", 11], "35": ["polyphenylene2", 5], "45": ["polyphenylene3", 11]}', 'substructure_query_id': 11}, 136: {'residue_name': 'polyphenylene1', 'residue_number': 9, 'insertion_code': ' ', 'chain_id': ' ', 'match_info': '{"9": ["polyphenylene1", 6], "23": ["polyphenylene6", 6], "35": ["polyphenylene2", 8], "45": ["polyphenylene3", 6], "57": ["polyphenylene5", 6]}', 'substructure_query_id': 6}, 137: {'residue_name': 'polyphenylene1', 'residue_number': 9, 'insertion_code': ' ', 'chain_id': ' ', 'match_info': '{"9": ["polyphenylene1", 9], "35": ["polyphenylene2", 7], "57": ["polyphenylene5", 9]}', 'substructure_query_id': 9}, 138: {'residue_name': 'polyphenylene1', 'residue_number': 9, 'insertion_code': ' ', 'chain_id': ' ', 'match_info': '{"9": ["polyphenylene1", 4], "23": ["polyphenylene6", 4], "35": ["polyphenylene2", 10], "45": ["polyphenylene3", 4], "57": ["polyphenylene5", 4]}', 'substructure_query_id': 4}, 139: {'residue_name': 'polyphenylene1', 'residue_number': 9, 'insertion_code': ' ', 'chain_id': ' ', 'match_info': '{"9": ["polyphenylene1", 7], "45": ["polyphenylene3", 7]}', 'substructure_query_id': 7}, 140: {'residue_name': 'polyphenylene1', 'residue_number': 9, 'insertion_code': ' ', 'chain_id': ' ', 'match_info': '{"9": ["polyphenylene1", 5], "35": ["polyphenylene2", 11]}', 'substructure_query_id': 5}, 141: {'residue_name': 'polyphenylene1', 'residue_number': 9, 'insertion_code': ' ', 'chain_id': ' ', 'match_info': '{"9": ["polyphenylene1", 3], "35": ["polyphenylene2", 1], "45": ["polyphenylene3", 3]}', 'substructure_query_id': 3}, 142: {'residue_name': 'polyphenylene1', 'residue_number': 5, 'insertion_code': ' ', 'chain_id': ' ', 'match_info': '{"5": ["polyphenylene1", 7], "41": ["polyphenylene3", 3]}', 'substructure_query_id': 7}, 143: {'residue_name': 'polyphenylene_mid', 'residue_number': 58, 'insertion_code': ' ', 'chain_id': ' ', 'match_info': '{"58": ["polyphenylene_mid", 19]}', 'substructure_query_id': 19}, 144: {'residue_name': 'polyphenylene_mid', 'residue_number': 58, 'insertion_code': ' ', 'chain_id': ' ', 'match_info': '{"58": ["polyphenylene_mid", 20]}', 'substructure_query_id': 20}}

>  <atom.dprop.PartialCharge>  (1) 
-0.13156141659309123 -0.11474514326144909 -0.12096547653962826 0.1346985665888622 -0.031409870293633693 0.13367595950077321 -0.01290437897731518 -0.12096547653962826 -0.13156141659309123
0.13367595950077321 0.1346985665888622 -0.01290437897731518 -0.011885925587908975 -0.018952976372735252 -0.031409870293633693 -0.12096547653962826 -0.12096547653962826 -0.13156141659309123
0.13367595950077321 -0.11474514326144909 0.1346985665888622 -0.13156141659309123 0.13048275986622121 0.1346985665888622 0.13367595950077321 -0.030963070151107063 -0.0118858659832642
-0.01290437897731518 -0.031409870293633693 -0.12096547653962826 -0.12096547653962826 -0.13156141659309123 0.13367595950077321 -0.11474514326144909 0.1346985665888622 -0.13156141659309123
0.13048275986622121 0.1346985665888622 0.13367595950077321 -0.031409870293633693 -0.12096547653962826 -0.12096547653962826 -0.13156141659309123 0.13367595950077321 -0.11474514326144909
0.1346985665888622 -0.13156141659309123 0.13048275986622121 0.1346985665888622 0.13367595950077321 -0.1146962078480885 -0.1146962078480885 -0.1307983132271931 0.1312735793919399
-0.062375202235476726 0.13468490222404744 -0.0035338992445633328 -0.1307983132271931 0.13468490222404744 0.1312735793919399 -0.031409870293633693 -0.12096547653962826 -0.12096547653962826
-0.13156141659309123 0.13367595950077321 -0.11474514326144909 0.1346985665888622 -0.13156141659309123 0.13048275986622121 0.1346985665888622 0.13367595950077321 0.13048275986622121
-0.13156141659309123 -0.11474514326144909 -0.12096547653962826 0.1346985665888622 -0.031409870293633693 0.13367595950077321 -0.01290437897731518 -0.12096547653962826 -0.13156141659309123
0.13367595950077321 0.1346985665888622 -0.01290437897731518 -0.011885925587908975 -0.018952976372735252 -0.031409870293633693 -0.12096547653962826 -0.12096547653962826 -0.13156141659309123
0.13367595950077321 -0.11474514326144909 0.1346985665888622 -0.13156141659309123 0.13048275986622121 0.1346985665888622 0.13367595950077321 -0.030963070151107063 -0.0118858659832642
-0.01290437897731518 -0.031409870293633693 -0.12096547653962826 -0.12096547653962826 -0.13156141659309123 0.13367595950077321 -0.11474514326144909 0.1346985665888622 -0.13156141659309123
0.13048275986622121 0.1346985665888622 0.13367595950077321 -0.031409870293633693 -0.12096547653962826 -0.12096547653962826 -0.13156141659309123 0.13367595950077321 -0.11474514326144909
0.1346985665888622 -0.13156141659309123 0.13048275986622121 0.1346985665888622 0.13367595950077321 -0.1146962078480885 -0.1146962078480885 -0.1307983132271931 0.1312735793919399
-0.062375202235476726 0.13468490222404744 -0.1307983132271931 0.13468490222404744 0.1312735793919399 -0.031409870293633693 -0.12096547653962826 -0.12096547653962826 -0.13156141659309123
0.13367595950077321 -0.11474514326144909 0.1346985665888622 -0.13156141659309123 0.13048275986622121 0.1346985665888622 0.13367595950077321 0.13048275986622121 0.055500142815811879
0.055500146541102177

$$$$
